<?xml version="1.0" encoding="UTF-8"?>

<!-- generated on 03/24/22 14:05:01 by Eclipse SUMO duarouter Version 1.4.0
<configuration xmlns:xsi="http://www.w3.org/2001/XMLSchema-instance" xsi:noNamespaceSchemaLocation="http://sumo.dlr.de/xsd/duarouterConfiguration.xsd">

    <input>
        <net-file value="sumo\\fixedtime.net.xml"/>
        <route-files value="trips.trips.xml"/>
    </input>

    <output>
        <output-file value="roo.rou.xml"/>
        <alternatives-output value="roo.rou.alt.xml"/>
    </output>

    <time>
        <begin value="0.0"/>
        <end value="600.0"/>
    </time>

    <report>
        <no-warnings value="true"/>
        <ignore-errors value="true"/>
        <no-step-log value="true"/>
    </report>

</configuration>
-->

<routes xmlns:xsi="http://www.w3.org/2001/XMLSchema-instance" xsi:noNamespaceSchemaLocation="http://sumo.dlr.de/xsd/routes_file.xsd">
    <vehicle id="1" depart="0.00">
        <route edges="8 -5 1 -2"/>
    </vehicle>
    <vehicle id="2" depart="0.00">
        <route edges="2 -3"/>
    </vehicle>
    <vehicle id="5" depart="0.00">
        <route edges="9 -8"/>
    </vehicle>
    <vehicle id="6" depart="0.00">
        <route edges="7 -5 -6"/>
    </vehicle>
    <vehicle id="7" depart="0.00">
        <route edges="-5 1 -0"/>
    </vehicle>
    <vehicle id="8" depart="1.00">
        <route edges="9 -5 1"/>
    </vehicle>
    <vehicle id="9" depart="1.00">
        <route edges="-1 -6"/>
    </vehicle>
    <vehicle id="13" depart="2.00">
        <route edges="6 5"/>
    </vehicle>
    <vehicle id="14" depart="2.00">
        <route edges="-1 5 -8"/>
    </vehicle>
    <vehicle id="15" depart="2.00">
        <route edges="8 -5 1 -3"/>
    </vehicle>
    <vehicle id="16" depart="2.00">
        <route edges="-5 1 -3"/>
    </vehicle>
    <vehicle id="20" depart="3.00">
        <route edges="2 -1 -6"/>
    </vehicle>
    <vehicle id="22" depart="4.00">
        <route edges="0 -1"/>
    </vehicle>
    <vehicle id="23" depart="4.00">
        <route edges="1 -0"/>
    </vehicle>
    <vehicle id="24" depart="4.00">
        <route edges="7 -5 1"/>
    </vehicle>
    <vehicle id="25" depart="4.00">
        <route edges="6 5"/>
    </vehicle>
    <vehicle id="26" depart="5.00">
        <route edges="9 -5 -6"/>
    </vehicle>
    <vehicle id="28" depart="6.00">
        <route edges="6 1 -3"/>
    </vehicle>
    <vehicle id="30" depart="6.00">
        <route edges="9 -5 1 -3"/>
    </vehicle>
    <vehicle id="34" depart="7.00">
        <route edges="0 -1 5"/>
    </vehicle>
    <vehicle id="35" depart="7.00">
        <route edges="4 -6"/>
    </vehicle>
    <vehicle id="36" depart="7.00">
        <route edges="-5 1 -0"/>
    </vehicle>
    <vehicle id="37" depart="8.00">
        <route edges="0 -1 -4"/>
    </vehicle>
    <vehicle id="38" depart="8.00">
        <route edges="8 -5 1 -2"/>
    </vehicle>
    <vehicle id="39" depart="8.00">
        <route edges="6 5 -8"/>
    </vehicle>
    <vehicle id="41" depart="9.00">
        <route edges="3 -1 -4"/>
    </vehicle>
    <vehicle id="43" depart="9.00">
        <route edges="1 -2"/>
    </vehicle>
    <vehicle id="44" depart="9.00">
        <route edges="-1 5"/>
    </vehicle>
    <vehicle id="45" depart="9.00">
        <route edges="-1 5 -7"/>
    </vehicle>
    <vehicle id="47" depart="10.00">
        <route edges="3 -1 5"/>
    </vehicle>
    <vehicle id="48" depart="10.00">
        <route edges="5"/>
    </vehicle>
    <vehicle id="49" depart="10.00">
        <route edges="8 -5 -4"/>
    </vehicle>
    <vehicle id="50" depart="11.00">
        <route edges="6 1 -2"/>
    </vehicle>
    <vehicle id="51" depart="11.00">
        <route edges="2 -1"/>
    </vehicle>
    <vehicle id="53" depart="11.00">
        <route edges="7 -5 -4"/>
    </vehicle>
    <vehicle id="54" depart="11.00">
        <route edges="8 -5"/>
    </vehicle>
    <vehicle id="57" depart="12.00">
        <route edges="7 -5 -4"/>
    </vehicle>
    <vehicle id="58" depart="12.00">
        <route edges="4 1 -0"/>
    </vehicle>
    <vehicle id="60" depart="12.00">
        <route edges="6 -4"/>
    </vehicle>
    <vehicle id="61" depart="12.00">
        <route edges="9 -5 1"/>
    </vehicle>
    <vehicle id="62" depart="12.00">
        <route edges="8 -5 1 -3"/>
    </vehicle>
    <vehicle id="63" depart="12.00">
        <route edges="4 5 -9"/>
    </vehicle>
    <vehicle id="64" depart="12.00">
        <route edges="0 -1 -4"/>
    </vehicle>
    <vehicle id="66" depart="13.00">
        <route edges="6 5 -9"/>
    </vehicle>
    <vehicle id="69" depart="14.00">
        <route edges="7 -5 1 -3"/>
    </vehicle>
    <vehicle id="70" depart="14.00">
        <route edges="2 -1 -4"/>
    </vehicle>
    <vehicle id="73" depart="14.00">
        <route edges="9 -5 -6"/>
    </vehicle>
    <vehicle id="75" depart="14.00">
        <route edges="-1"/>
    </vehicle>
    <vehicle id="76" depart="15.00">
        <route edges="-1 5"/>
    </vehicle>
    <vehicle id="78" depart="15.00">
        <route edges="3 -1 5 -7"/>
    </vehicle>
    <vehicle id="79" depart="15.00">
        <route edges="3 -0"/>
    </vehicle>
    <vehicle id="80" depart="16.00">
        <route edges="4 5 -7"/>
    </vehicle>
    <vehicle id="81" depart="16.00">
        <route edges="3 -0"/>
    </vehicle>
    <vehicle id="84" depart="16.00">
        <route edges="7 -5 -4"/>
    </vehicle>
    <vehicle id="85" depart="16.00">
        <route edges="8 -5 1 -2"/>
    </vehicle>
    <vehicle id="86" depart="17.00">
        <route edges="6 5 -8"/>
    </vehicle>
    <vehicle id="89" depart="18.00">
        <route edges="8 -5 1 -2"/>
    </vehicle>
    <vehicle id="93" depart="18.00">
        <route edges="-1 5 -8"/>
    </vehicle>
    <vehicle id="94" depart="19.00">
        <route edges="9 -5 1 -0"/>
    </vehicle>
    <vehicle id="96" depart="19.00">
        <route edges="-1 -4"/>
    </vehicle>
    <vehicle id="103" depart="20.00">
        <route edges="3 -1 -4"/>
    </vehicle>
    <vehicle id="105" depart="21.00">
        <route edges="6 5 -9"/>
    </vehicle>
    <vehicle id="108" depart="21.00">
        <route edges="1 -2"/>
    </vehicle>
    <vehicle id="109" depart="21.00">
        <route edges="6 1 -0"/>
    </vehicle>
    <vehicle id="111" depart="21.00">
        <route edges="6 1 -3"/>
    </vehicle>
    <vehicle id="112" depart="21.00">
        <route edges="9 -5 1 -3"/>
    </vehicle>
    <vehicle id="113" depart="21.00">
        <route edges="3 -0"/>
    </vehicle>
    <vehicle id="117" depart="23.00">
        <route edges="4 5"/>
    </vehicle>
    <vehicle id="118" depart="23.00">
        <route edges="6 5"/>
    </vehicle>
    <vehicle id="119" depart="23.00">
        <route edges="4 1"/>
    </vehicle>
    <vehicle id="121" depart="23.00">
        <route edges="-5"/>
    </vehicle>
    <vehicle id="122" depart="24.00">
        <route edges="-1 5 -9"/>
    </vehicle>
    <vehicle id="123" depart="24.00">
        <route edges="9 -5 1 -0"/>
    </vehicle>
    <vehicle id="124" depart="24.00">
        <route edges="-5 1"/>
    </vehicle>
    <vehicle id="125" depart="24.00">
        <route edges="8 -5 1"/>
    </vehicle>
    <vehicle id="126" depart="24.00">
        <route edges="7 -9"/>
    </vehicle>
    <vehicle id="127" depart="25.00">
        <route edges="0 -2"/>
    </vehicle>
    <vehicle id="129" depart="25.00">
        <route edges="0 -2"/>
    </vehicle>
    <vehicle id="131" depart="25.00">
        <route edges="8 -5 1 -3"/>
    </vehicle>
    <vehicle id="132" depart="25.00">
        <route edges="-5 1 -3"/>
    </vehicle>
    <vehicle id="133" depart="25.00">
        <route edges="7 -8"/>
    </vehicle>
    <vehicle id="134" depart="26.00">
        <route edges="0 -1 5 -8"/>
    </vehicle>
    <vehicle id="136" depart="26.00">
        <route edges="0 -1 5 -8"/>
    </vehicle>
    <vehicle id="137" depart="27.00">
        <route edges="6 -4"/>
    </vehicle>
    <vehicle id="138" depart="27.00">
        <route edges="1"/>
    </vehicle>
    <vehicle id="139" depart="27.00">
        <route edges="9 -5 -4"/>
    </vehicle>
    <vehicle id="140" depart="27.00">
        <route edges="7 -5 -4"/>
    </vehicle>
    <vehicle id="141" depart="27.00">
        <route edges="2 -3"/>
    </vehicle>
    <vehicle id="142" depart="27.00">
        <route edges="4 5 -8"/>
    </vehicle>
    <vehicle id="143" depart="27.00">
        <route edges="4 1 -3"/>
    </vehicle>
    <vehicle id="144" depart="28.00">
        <route edges="8 -9"/>
    </vehicle>
    <vehicle id="145" depart="28.00">
        <route edges="7 -5 1"/>
    </vehicle>
    <vehicle id="147" depart="28.00">
        <route edges="7 -9"/>
    </vehicle>
    <vehicle id="148" depart="29.00">
        <route edges="2 -1 -6"/>
    </vehicle>
    <vehicle id="150" depart="29.00">
        <route edges="6 1 -0"/>
    </vehicle>
    <vehicle id="151" depart="30.00">
        <route edges="0 -1 -6"/>
    </vehicle>
    <vehicle id="154" depart="30.00">
        <route edges="4 1"/>
    </vehicle>
    <vehicle id="155" depart="30.00">
        <route edges="0 -1 5"/>
    </vehicle>
    <vehicle id="156" depart="31.00">
        <route edges="6 5 -9"/>
    </vehicle>
    <vehicle id="158" depart="31.00">
        <route edges="6 -4"/>
    </vehicle>
    <vehicle id="159" depart="31.00">
        <route edges="8 -5 1"/>
    </vehicle>
    <vehicle id="160" depart="32.00">
        <route edges="8 -7"/>
    </vehicle>
    <vehicle id="162" depart="32.00">
        <route edges="4 1 -0"/>
    </vehicle>
    <vehicle id="163" depart="32.00">
        <route edges="3 -1 -6"/>
    </vehicle>
    <vehicle id="164" depart="32.00">
        <route edges="7 -8"/>
    </vehicle>
    <vehicle id="165" depart="33.00">
        <route edges="-1 -4"/>
    </vehicle>
    <vehicle id="166" depart="33.00">
        <route edges="2 -1 5 -9"/>
    </vehicle>
    <vehicle id="167" depart="33.00">
        <route edges="2 -1 5 -7"/>
    </vehicle>
    <vehicle id="168" depart="34.00">
        <route edges="3 -1 5"/>
    </vehicle>
    <vehicle id="169" depart="34.00">
        <route edges="7 -5"/>
    </vehicle>
    <vehicle id="170" depart="34.00">
        <route edges="2 -1"/>
    </vehicle>
    <vehicle id="173" depart="35.00">
        <route edges="8 -5 -4"/>
    </vehicle>
    <vehicle id="174" depart="35.00">
        <route edges="0 -1 5 -9"/>
    </vehicle>
    <vehicle id="177" depart="36.00">
        <route edges="6 -4"/>
    </vehicle>
    <vehicle id="178" depart="36.00">
        <route edges="3 -0"/>
    </vehicle>
    <vehicle id="179" depart="36.00">
        <route edges="3 -2"/>
    </vehicle>
    <vehicle id="180" depart="36.00">
        <route edges="8 -5 1 -0"/>
    </vehicle>
    <vehicle id="182" depart="37.00">
        <route edges="7 -5"/>
    </vehicle>
    <vehicle id="184" depart="37.00">
        <route edges="7 -5 1"/>
    </vehicle>
    <vehicle id="185" depart="37.00">
        <route edges="7 -5 1 -0"/>
    </vehicle>
    <vehicle id="190" depart="37.00">
        <route edges="6 1 -2"/>
    </vehicle>
    <vehicle id="191" depart="38.00">
        <route edges="9 -5 1"/>
    </vehicle>
    <vehicle id="192" depart="38.00">
        <route edges="0 -1 5 -7"/>
    </vehicle>
    <vehicle id="193" depart="38.00">
        <route edges="-5"/>
    </vehicle>
    <vehicle id="194" depart="38.00">
        <route edges="2 -1 5 -9"/>
    </vehicle>
    <vehicle id="196" depart="39.00">
        <route edges="-1 -4"/>
    </vehicle>
    <vehicle id="197" depart="39.00">
        <route edges="9 -8"/>
    </vehicle>
    <vehicle id="200" depart="40.00">
        <route edges="8 -9"/>
    </vehicle>
    <vehicle id="202" depart="40.00">
        <route edges="-5 1"/>
    </vehicle>
    <vehicle id="204" depart="40.00">
        <route edges="8 -5 1 -2"/>
    </vehicle>
    <vehicle id="205" depart="41.00">
        <route edges="9 -5 1"/>
    </vehicle>
    <vehicle id="206" depart="41.00">
        <route edges="7 -5 1 -0"/>
    </vehicle>
    <vehicle id="208" depart="41.00">
        <route edges="5 -8"/>
    </vehicle>
    <vehicle id="211" depart="42.00">
        <route edges="2 -0"/>
    </vehicle>
    <vehicle id="213" depart="42.00">
        <route edges="5 -7"/>
    </vehicle>
    <vehicle id="215" depart="42.00">
        <route edges="9 -5 -4"/>
    </vehicle>
    <vehicle id="217" depart="42.00">
        <route edges="6 5"/>
    </vehicle>
    <vehicle id="219" depart="43.00">
        <route edges="0 -1 -4"/>
    </vehicle>
    <vehicle id="220" depart="43.00">
        <route edges="3 -1"/>
    </vehicle>
    <vehicle id="224" depart="43.00">
        <route edges="9 -7"/>
    </vehicle>
    <vehicle id="226" depart="44.00">
        <route edges="9 -5 1 -0"/>
    </vehicle>
    <vehicle id="228" depart="44.00">
        <route edges="6 5 -7"/>
    </vehicle>
    <vehicle id="231" depart="45.00">
        <route edges="8 -5"/>
    </vehicle>
    <vehicle id="232" depart="45.00">
        <route edges="0 -2"/>
    </vehicle>
    <vehicle id="233" depart="45.00">
        <route edges="2 -3"/>
    </vehicle>
    <vehicle id="234" depart="45.00">
        <route edges="2 -0"/>
    </vehicle>
    <vehicle id="235" depart="46.00">
        <route edges="8 -9"/>
    </vehicle>
    <vehicle id="237" depart="46.00">
        <route edges="1 -2"/>
    </vehicle>
    <vehicle id="238" depart="46.00">
        <route edges="-1 5 -9"/>
    </vehicle>
    <vehicle id="239" depart="46.00">
        <route edges="0 -1 5 -9"/>
    </vehicle>
    <vehicle id="240" depart="46.00">
        <route edges="-1 5 -7"/>
    </vehicle>
    <vehicle id="241" depart="46.00">
        <route edges="3 -1 5"/>
    </vehicle>
    <vehicle id="243" depart="46.00">
        <route edges="9 -7"/>
    </vehicle>
    <vehicle id="244" depart="46.00">
        <route edges="7 -5 1 -0"/>
    </vehicle>
    <vehicle id="245" depart="46.00">
        <route edges="4 5 -9"/>
    </vehicle>
    <vehicle id="246" depart="47.00">
        <route edges="2 -1 5 -8"/>
    </vehicle>
    <vehicle id="247" depart="47.00">
        <route edges="9 -5 -4"/>
    </vehicle>
    <vehicle id="248" depart="47.00">
        <route edges="8 -7"/>
    </vehicle>
    <vehicle id="250" depart="47.00">
        <route edges="9 -7"/>
    </vehicle>
    <vehicle id="253" depart="48.00">
        <route edges="6 5 -7"/>
    </vehicle>
    <vehicle id="254" depart="48.00">
        <route edges="0 -1 5 -8"/>
    </vehicle>
    <vehicle id="255" depart="48.00">
        <route edges="3 -1 5"/>
    </vehicle>
    <vehicle id="258" depart="49.00">
        <route edges="-5 1 -2"/>
    </vehicle>
    <vehicle id="261" depart="49.00">
        <route edges="0 -1"/>
    </vehicle>
    <vehicle id="262" depart="50.00">
        <route edges="8 -5 1 -0"/>
    </vehicle>
    <vehicle id="263" depart="50.00">
        <route edges="0 -1 5 -7"/>
    </vehicle>
    <vehicle id="264" depart="50.00">
        <route edges="8 -5"/>
    </vehicle>
    <vehicle id="265" depart="50.00">
        <route edges="5"/>
    </vehicle>
    <vehicle id="267" depart="50.00">
        <route edges="1"/>
    </vehicle>
    <vehicle id="269" depart="51.00">
        <route edges="-1 5 -8"/>
    </vehicle>
    <vehicle id="270" depart="51.00">
        <route edges="3 -1 -4"/>
    </vehicle>
    <vehicle id="276" depart="53.00">
        <route edges="4 1"/>
    </vehicle>
    <vehicle id="278" depart="54.00">
        <route edges="2 -3"/>
    </vehicle>
    <vehicle id="279" depart="54.00">
        <route edges="2 -1 5 -8"/>
    </vehicle>
    <vehicle id="280" depart="54.00">
        <route edges="2 -1 5 -9"/>
    </vehicle>
    <vehicle id="283" depart="54.00">
        <route edges="2 -0"/>
    </vehicle>
    <vehicle id="285" depart="55.00">
        <route edges="2 -1 -4"/>
    </vehicle>
    <vehicle id="287" depart="55.00">
        <route edges="6 1 -0"/>
    </vehicle>
    <vehicle id="288" depart="55.00">
        <route edges="4 1 -2"/>
    </vehicle>
    <vehicle id="289" depart="55.00">
        <route edges="4 1 -0"/>
    </vehicle>
    <vehicle id="291" depart="55.00">
        <route edges="9 -5 -4"/>
    </vehicle>
    <vehicle id="292" depart="55.00">
        <route edges="5"/>
    </vehicle>
    <vehicle id="293" depart="55.00">
        <route edges="0 -1 5 -8"/>
    </vehicle>
    <vehicle id="294" depart="56.00">
        <route edges="3 -1 5 -7"/>
    </vehicle>
    <vehicle id="295" depart="56.00">
        <route edges="5 -9"/>
    </vehicle>
    <vehicle id="297" depart="56.00">
        <route edges="4 5 -8"/>
    </vehicle>
    <vehicle id="298" depart="56.00">
        <route edges="2 -1 -4"/>
    </vehicle>
    <vehicle id="300" depart="57.00">
        <route edges="3 -1 5 -7"/>
    </vehicle>
    <vehicle id="302" depart="57.00">
        <route edges="6 1 -3"/>
    </vehicle>
    <vehicle id="304" depart="58.00">
        <route edges="4 1 -0"/>
    </vehicle>
    <vehicle id="305" depart="58.00">
        <route edges="8 -9"/>
    </vehicle>
    <vehicle id="306" depart="58.00">
        <route edges="9 -5 -4"/>
    </vehicle>
    <vehicle id="307" depart="58.00">
        <route edges="3 -1 5 -7"/>
    </vehicle>
    <vehicle id="308" depart="58.00">
        <route edges="0 -1 5 -8"/>
    </vehicle>
    <vehicle id="309" depart="59.00">
        <route edges="-5"/>
    </vehicle>
    <vehicle id="310" depart="59.00">
        <route edges="0 -1 5 -8"/>
    </vehicle>
    <vehicle id="311" depart="59.00">
        <route edges="6 -4"/>
    </vehicle>
    <vehicle id="312" depart="59.00">
        <route edges="-5 1 -3"/>
    </vehicle>
    <vehicle id="314" depart="60.00">
        <route edges="0 -1 5 -9"/>
    </vehicle>
    <vehicle id="315" depart="60.00">
        <route edges="9 -5 1 -2"/>
    </vehicle>
    <vehicle id="316" depart="60.00">
        <route edges="8 -5 1 -2"/>
    </vehicle>
    <vehicle id="318" depart="61.00">
        <route edges="9 -5 1"/>
    </vehicle>
    <vehicle id="319" depart="61.00">
        <route edges="9 -5 1 -0"/>
    </vehicle>
    <vehicle id="320" depart="61.00">
        <route edges="2 -1 -6"/>
    </vehicle>
    <vehicle id="322" depart="61.00">
        <route edges="7 -5 1"/>
    </vehicle>
    <vehicle id="323" depart="61.00">
        <route edges="2 -1 5"/>
    </vehicle>
    <vehicle id="324" depart="61.00">
        <route edges="4 1 -3"/>
    </vehicle>
    <vehicle id="326" depart="62.00">
        <route edges="3 -1 5 -9"/>
    </vehicle>
    <vehicle id="327" depart="62.00">
        <route edges="3 -1 -6"/>
    </vehicle>
    <vehicle id="330" depart="62.00">
        <route edges="4 1 -0"/>
    </vehicle>
    <vehicle id="331" depart="62.00">
        <route edges="8 -5 -6"/>
    </vehicle>
    <vehicle id="333" depart="63.00">
        <route edges="1 -0"/>
    </vehicle>
    <vehicle id="337" depart="64.00">
        <route edges="0 -1 -6"/>
    </vehicle>
    <vehicle id="338" depart="64.00">
        <route edges="-1 5 -9"/>
    </vehicle>
    <vehicle id="339" depart="64.00">
        <route edges="9 -5 1 -3"/>
    </vehicle>
    <vehicle id="340" depart="64.00">
        <route edges="0 -1 5"/>
    </vehicle>
    <vehicle id="342" depart="64.00">
        <route edges="4 1"/>
    </vehicle>
    <vehicle id="344" depart="65.00">
        <route edges="9 -8"/>
    </vehicle>
    <vehicle id="345" depart="65.00">
        <route edges="4 5 -8"/>
    </vehicle>
    <vehicle id="346" depart="65.00">
        <route edges="5"/>
    </vehicle>
    <vehicle id="347" depart="65.00">
        <route edges="-1 5 -8"/>
    </vehicle>
    <vehicle id="348" depart="65.00">
        <route edges="3 -1 5 -7"/>
    </vehicle>
    <vehicle id="349" depart="65.00">
        <route edges="-1 -4"/>
    </vehicle>
    <vehicle id="350" depart="66.00">
        <route edges="1 -0"/>
    </vehicle>
    <vehicle id="352" depart="66.00">
        <route edges="8 -9"/>
    </vehicle>
    <vehicle id="353" depart="66.00">
        <route edges="9 -5 -6"/>
    </vehicle>
    <vehicle id="354" depart="66.00">
        <route edges="-1 -6"/>
    </vehicle>
    <vehicle id="355" depart="66.00">
        <route edges="3 -1 5 -9"/>
    </vehicle>
    <vehicle id="356" depart="67.00">
        <route edges="7 -5 1 -0"/>
    </vehicle>
    <vehicle id="357" depart="67.00">
        <route edges="6 5 -7"/>
    </vehicle>
    <vehicle id="358" depart="67.00">
        <route edges="0 -1 5 -9"/>
    </vehicle>
    <vehicle id="359" depart="68.00">
        <route edges="0 -1 -4"/>
    </vehicle>
    <vehicle id="360" depart="68.00">
        <route edges="-5 1 -2"/>
    </vehicle>
    <vehicle id="361" depart="68.00">
        <route edges="8 -5 1 -3"/>
    </vehicle>
    <vehicle id="362" depart="68.00">
        <route edges="8 -5 1 -2"/>
    </vehicle>
    <vehicle id="363" depart="68.00">
        <route edges="6 5 -9"/>
    </vehicle>
    <vehicle id="364" depart="68.00">
        <route edges="0 -1 -6"/>
    </vehicle>
    <vehicle id="365" depart="69.00">
        <route edges="6 5 -7"/>
    </vehicle>
    <vehicle id="370" depart="69.00">
        <route edges="0 -1 -6"/>
    </vehicle>
    <vehicle id="371" depart="69.00">
        <route edges="8 -9"/>
    </vehicle>
    <vehicle id="372" depart="69.00">
        <route edges="7 -5"/>
    </vehicle>
    <vehicle id="375" depart="70.00">
        <route edges="2 -3"/>
    </vehicle>
    <vehicle id="377" depart="70.00">
        <route edges="7 -5"/>
    </vehicle>
    <vehicle id="378" depart="71.00">
        <route edges="8 -5 1 -3"/>
    </vehicle>
    <vehicle id="382" depart="72.00">
        <route edges="4 5 -7"/>
    </vehicle>
    <vehicle id="383" depart="72.00">
        <route edges="1 -3"/>
    </vehicle>
    <vehicle id="385" depart="72.00">
        <route edges="-1"/>
    </vehicle>
    <vehicle id="387" depart="73.00">
        <route edges="0 -1 5"/>
    </vehicle>
    <vehicle id="389" depart="73.00">
        <route edges="-1 5"/>
    </vehicle>
    <vehicle id="391" depart="73.00">
        <route edges="9 -8"/>
    </vehicle>
    <vehicle id="392" depart="74.00">
        <route edges="-1 5 -8"/>
    </vehicle>
    <vehicle id="393" depart="74.00">
        <route edges="3 -0"/>
    </vehicle>
    <vehicle id="395" depart="74.00">
        <route edges="6 1 -0"/>
    </vehicle>
    <vehicle id="396" depart="74.00">
        <route edges="6 1 -2"/>
    </vehicle>
    <vehicle id="397" depart="75.00">
        <route edges="0 -1 -6"/>
    </vehicle>
    <vehicle id="399" depart="75.00">
        <route edges="-5 1 -0"/>
    </vehicle>
    <vehicle id="400" depart="76.00">
        <route edges="7 -5 1 -3"/>
    </vehicle>
    <vehicle id="402" depart="76.00">
        <route edges="4 5 -8"/>
    </vehicle>
    <vehicle id="403" depart="76.00">
        <route edges="-1 -4"/>
    </vehicle>
    <vehicle id="404" depart="76.00">
        <route edges="7 -5 1"/>
    </vehicle>
    <vehicle id="405" depart="76.00">
        <route edges="6 1 -2"/>
    </vehicle>
    <vehicle id="406" depart="76.00">
        <route edges="0 -1"/>
    </vehicle>
    <vehicle id="407" depart="76.00">
        <route edges="7 -5 1 -3"/>
    </vehicle>
    <vehicle id="408" depart="76.00">
        <route edges="0 -1 5 -7"/>
    </vehicle>
    <vehicle id="410" depart="77.00">
        <route edges="-1 -6"/>
    </vehicle>
    <vehicle id="414" depart="78.00">
        <route edges="0 -3"/>
    </vehicle>
    <vehicle id="415" depart="78.00">
        <route edges="9 -5 -4"/>
    </vehicle>
    <vehicle id="417" depart="78.00">
        <route edges="2 -1"/>
    </vehicle>
    <vehicle id="419" depart="78.00">
        <route edges="9 -5 -6"/>
    </vehicle>
    <vehicle id="421" depart="78.00">
        <route edges="0 -1 5 -9"/>
    </vehicle>
    <vehicle id="422" depart="78.00">
        <route edges="6 5 -7"/>
    </vehicle>
    <vehicle id="423" depart="78.00">
        <route edges="7 -5 -4"/>
    </vehicle>
    <vehicle id="427" depart="80.00">
        <route edges="9 -5 1"/>
    </vehicle>
    <vehicle id="429" depart="80.00">
        <route edges="2 -1 -6"/>
    </vehicle>
    <vehicle id="430" depart="80.00">
        <route edges="-5"/>
    </vehicle>
    <vehicle id="432" depart="80.00">
        <route edges="-5 -6"/>
    </vehicle>
    <vehicle id="433" depart="80.00">
        <route edges="-5 -6"/>
    </vehicle>
    <vehicle id="435" depart="81.00">
        <route edges="9 -5 1"/>
    </vehicle>
    <vehicle id="437" depart="83.00">
        <route edges="5"/>
    </vehicle>
    <vehicle id="438" depart="83.00">
        <route edges="-1 5 -9"/>
    </vehicle>
    <vehicle id="439" depart="83.00">
        <route edges="2 -1 5 -8"/>
    </vehicle>
    <vehicle id="440" depart="83.00">
        <route edges="3 -1 5"/>
    </vehicle>
    <vehicle id="441" depart="83.00">
        <route edges="4 5"/>
    </vehicle>
    <vehicle id="443" depart="83.00">
        <route edges="7 -8"/>
    </vehicle>
    <vehicle id="444" depart="83.00">
        <route edges="3 -1 5 -8"/>
    </vehicle>
    <vehicle id="445" depart="83.00">
        <route edges="-5 1 -0"/>
    </vehicle>
    <vehicle id="446" depart="83.00">
        <route edges="4 1"/>
    </vehicle>
    <vehicle id="447" depart="84.00">
        <route edges="6 5 -7"/>
    </vehicle>
    <vehicle id="449" depart="84.00">
        <route edges="0 -2"/>
    </vehicle>
    <vehicle id="450" depart="84.00">
        <route edges="7 -5 1 -0"/>
    </vehicle>
    <vehicle id="451" depart="84.00">
        <route edges="4 5 -9"/>
    </vehicle>
    <vehicle id="452" depart="84.00">
        <route edges="7 -5 1"/>
    </vehicle>
    <vehicle id="453" depart="85.00">
        <route edges="2 -3"/>
    </vehicle>
    <vehicle id="457" depart="85.00">
        <route edges="-1 -6"/>
    </vehicle>
    <vehicle id="460" depart="86.00">
        <route edges="-1 5 -7"/>
    </vehicle>
    <vehicle id="461" depart="86.00">
        <route edges="-1 5"/>
    </vehicle>
    <vehicle id="463" depart="86.00">
        <route edges="-5 1"/>
    </vehicle>
    <vehicle id="465" depart="86.00">
        <route edges="6 1 -2"/>
    </vehicle>
    <vehicle id="467" depart="87.00">
        <route edges="8 -5 -4"/>
    </vehicle>
    <vehicle id="468" depart="87.00">
        <route edges="1 -2"/>
    </vehicle>
    <vehicle id="469" depart="87.00">
        <route edges="-5 -4"/>
    </vehicle>
    <vehicle id="470" depart="87.00">
        <route edges="5 -8"/>
    </vehicle>
    <vehicle id="471" depart="87.00">
        <route edges="5 -8"/>
    </vehicle>
    <vehicle id="473" depart="88.00">
        <route edges="-5 -6"/>
    </vehicle>
    <vehicle id="474" depart="88.00">
        <route edges="9 -5 -6"/>
    </vehicle>
    <vehicle id="475" depart="88.00">
        <route edges="9 -7"/>
    </vehicle>
    <vehicle id="476" depart="88.00">
        <route edges="0 -1 5"/>
    </vehicle>
    <vehicle id="477" depart="89.00">
        <route edges="-5"/>
    </vehicle>
    <vehicle id="479" depart="89.00">
        <route edges="4 1 -3"/>
    </vehicle>
    <vehicle id="480" depart="89.00">
        <route edges="6 5"/>
    </vehicle>
    <vehicle id="481" depart="90.00">
        <route edges="9 -5 1 -2"/>
    </vehicle>
    <vehicle id="482" depart="90.00">
        <route edges="7 -5 1 -2"/>
    </vehicle>
    <vehicle id="483" depart="90.00">
        <route edges="2 -1 5"/>
    </vehicle>
    <vehicle id="485" depart="90.00">
        <route edges="-1 5"/>
    </vehicle>
    <vehicle id="486" depart="91.00">
        <route edges="2 -1 -4"/>
    </vehicle>
    <vehicle id="488" depart="91.00">
        <route edges="5 -9"/>
    </vehicle>
    <vehicle id="489" depart="91.00">
        <route edges="3 -0"/>
    </vehicle>
    <vehicle id="490" depart="91.00">
        <route edges="-1 -4"/>
    </vehicle>
    <vehicle id="491" depart="91.00">
        <route edges="3 -2"/>
    </vehicle>
    <vehicle id="493" depart="92.00">
        <route edges="-1 5 -9"/>
    </vehicle>
    <vehicle id="495" depart="92.00">
        <route edges="3 -2"/>
    </vehicle>
    <vehicle id="497" depart="92.00">
        <route edges="0 -2"/>
    </vehicle>
    <vehicle id="498" depart="92.00">
        <route edges="-5 -4"/>
    </vehicle>
    <vehicle id="499" depart="92.00">
        <route edges="8 -5 1 -2"/>
    </vehicle>
    <vehicle id="500" depart="92.00">
        <route edges="6 5 -9"/>
    </vehicle>
    <vehicle id="501" depart="93.00">
        <route edges="4 5 -9"/>
    </vehicle>
    <vehicle id="502" depart="93.00">
        <route edges="3 -1 -4"/>
    </vehicle>
    <vehicle id="503" depart="93.00">
        <route edges="-1 -6"/>
    </vehicle>
    <vehicle id="509" depart="94.00">
        <route edges="8 -5 -4"/>
    </vehicle>
    <vehicle id="512" depart="96.00">
        <route edges="6 1 -2"/>
    </vehicle>
    <vehicle id="513" depart="96.00">
        <route edges="0 -1 -6"/>
    </vehicle>
    <vehicle id="514" depart="96.00">
        <route edges="3 -1 5 -7"/>
    </vehicle>
    <vehicle id="515" depart="97.00">
        <route edges="0 -1 5 -7"/>
    </vehicle>
    <vehicle id="516" depart="97.00">
        <route edges="4 5 -9"/>
    </vehicle>
    <vehicle id="517" depart="97.00">
        <route edges="9 -5"/>
    </vehicle>
    <vehicle id="518" depart="97.00">
        <route edges="8 -5 -6"/>
    </vehicle>
    <vehicle id="519" depart="98.00">
        <route edges="8 -5 1"/>
    </vehicle>
    <vehicle id="521" depart="98.00">
        <route edges="7 -8"/>
    </vehicle>
    <vehicle id="522" depart="98.00">
        <route edges="1 -0"/>
    </vehicle>
    <vehicle id="523" depart="98.00">
        <route edges="0 -3"/>
    </vehicle>
    <vehicle id="525" depart="99.00">
        <route edges="-5 1 -0"/>
    </vehicle>
    <vehicle id="526" depart="99.00">
        <route edges="-1 5"/>
    </vehicle>
    <vehicle id="530" depart="99.00">
        <route edges="5"/>
    </vehicle>
    <vehicle id="532" depart="99.00">
        <route edges="0 -1"/>
    </vehicle>