<?xml version="1.0" encoding="UTF-8"?>

<!-- generated on 03/07/22 20:42:01 by Eclipse SUMO duarouter Version 1.4.0
<configuration xmlns:xsi="http://www.w3.org/2001/XMLSchema-instance" xsi:noNamespaceSchemaLocation="http://sumo.dlr.de/xsd/duarouterConfiguration.xsd">

    <input>
        <net-file value="testnet.net.xml"/>
        <route-files value="testnet2.trips.xml"/>
    </input>

    <output>
        <output-file value="testnet2.rou.xml"/>
        <alternatives-output value="testnet2.rou.alt.xml"/>
    </output>

</configuration>
-->

<routes xmlns:xsi="http://www.w3.org/2001/XMLSchema-instance" xsi:noNamespaceSchemaLocation="http://sumo.dlr.de/xsd/routes_file.xsd">
    <vehicle id="1" depart="1.00">
        <route edges="-1 5 -9"/>
    </vehicle>
    <vehicle id="2" depart="1.00">
        <route edges="6 5"/>
    </vehicle>
    <vehicle id="4" depart="1.00">
        <route edges="-5 -4"/>
    </vehicle>
    <vehicle id="6" depart="1.00">
        <route edges="6 -4"/>
    </vehicle>
    <vehicle id="7" depart="1.00">
        <route edges="8 -5 1 -2"/>
    </vehicle>
    <vehicle id="8" depart="2.00">
        <route edges="6 1 -3"/>
    </vehicle>
    <vehicle id="9" depart="2.00">
        <route edges="6 1 -2"/>
    </vehicle>
    <vehicle id="12" depart="3.00">
        <route edges="4 5"/>
    </vehicle>
    <vehicle id="14" depart="4.00">
        <route edges="1 -0"/>
    </vehicle>
    <vehicle id="15" depart="4.00">
        <route edges="7 -5 1 -2"/>
    </vehicle>
    <vehicle id="17" depart="7.00">
        <route edges="9 -8"/>
    </vehicle>
    <vehicle id="18" depart="7.00">
        <route edges="3 -1 5 -8"/>
    </vehicle>
    <vehicle id="20" depart="7.00">
        <route edges="7 -5 1 -0"/>
    </vehicle>
    <vehicle id="21" depart="8.00">
        <route edges="5 -9"/>
    </vehicle>
    <vehicle id="23" depart="9.00">
        <route edges="0 -1 5"/>
    </vehicle>
    <vehicle id="24" depart="9.00">
        <route edges="6 1 -2"/>
    </vehicle>
    <vehicle id="25" depart="9.00">
        <route edges="8 -7"/>
    </vehicle>
    <vehicle id="26" depart="9.00">
        <route edges="2 -1 5"/>
    </vehicle>
    <vehicle id="27" depart="9.00">
        <route edges="-1"/>
    </vehicle>
    <vehicle id="28" depart="10.00">
        <route edges="6 5 -9"/>
    </vehicle>
    <vehicle id="31" depart="11.00">
        <route edges="4 -6"/>
    </vehicle>
    <vehicle id="33" depart="12.00">
        <route edges="7 -8"/>
    </vehicle>
    <vehicle id="35" depart="12.00">
        <route edges="-1 5 -8"/>
    </vehicle>
    <vehicle id="39" depart="13.00">
        <route edges="3 -2"/>
    </vehicle>
    <vehicle id="41" depart="14.00">
        <route edges="1"/>
    </vehicle>
    <vehicle id="43" depart="14.00">
        <route edges="7 -5 1"/>
    </vehicle>
    <vehicle id="46" depart="15.00">
        <route edges="5 -9"/>
    </vehicle>
    <vehicle id="47" depart="15.00">
        <route edges="4 1 -3"/>
    </vehicle>
    <vehicle id="48" depart="15.00">
        <route edges="0 -1 -4"/>
    </vehicle>
    <vehicle id="50" depart="16.00">
        <route edges="4 5 -8"/>
    </vehicle>
    <vehicle id="51" depart="17.00">
        <route edges="0 -1 5 -7"/>
    </vehicle>
    <vehicle id="52" depart="17.00">
        <route edges="9 -5 1 -0"/>
    </vehicle>
    <vehicle id="53" depart="17.00">
        <route edges="6 5"/>
    </vehicle>
    <vehicle id="54" depart="17.00">
        <route edges="1 -2"/>
    </vehicle>
    <vehicle id="55" depart="17.00">
        <route edges="8 -5 -4"/>
    </vehicle>
    <vehicle id="57" depart="18.00">
        <route edges="4 5"/>
    </vehicle>
    <vehicle id="58" depart="18.00">
        <route edges="3 -1 -4"/>
    </vehicle>
    <vehicle id="59" depart="19.00">
        <route edges="7 -5 -6"/>
    </vehicle>
    <vehicle id="61" depart="20.00">
        <route edges="9 -5 -4"/>
    </vehicle>
    <vehicle id="62" depart="20.00">
        <route edges="4 1 -0"/>
    </vehicle>
    <vehicle id="64" depart="21.00">
        <route edges="8 -7"/>
    </vehicle>
    <vehicle id="67" depart="22.00">
        <route edges="4 5 -8"/>
    </vehicle>
    <vehicle id="69" depart="23.00">
        <route edges="8 -5 -6"/>
    </vehicle>
    <vehicle id="70" depart="24.00">
        <route edges="4 1 -2"/>
    </vehicle>
    <vehicle id="72" depart="24.00">
        <route edges="-5 1 -2"/>
    </vehicle>
    <vehicle id="73" depart="24.00">
        <route edges="3 -2"/>
    </vehicle>
    <vehicle id="74" depart="24.00">
        <route edges="8 -7"/>
    </vehicle>
    <vehicle id="75" depart="25.00">
        <route edges="4 1 -3"/>
    </vehicle>
    <vehicle id="76" depart="25.00">
        <route edges="-5 1 -3"/>
    </vehicle>
    <vehicle id="77" depart="26.00">
        <route edges="-1 5 -9"/>
    </vehicle>
    <vehicle id="79" depart="26.00">
        <route edges="6 1 -3"/>
    </vehicle>
    <vehicle id="80" depart="26.00">
        <route edges="6 1 -3"/>
    </vehicle>
    <vehicle id="82" depart="28.00">
        <route edges="-5 1 -0"/>
    </vehicle>
    <vehicle id="84" depart="29.00">
        <route edges="-1"/>
    </vehicle>
    <vehicle id="86" depart="30.00">
        <route edges="5 -9"/>
    </vehicle>
    <vehicle id="87" depart="30.00">
        <route edges="9 -5 -4"/>
    </vehicle>
    <vehicle id="88" depart="31.00">
        <route edges="9 -8"/>
    </vehicle>
    <vehicle id="89" depart="32.00">
        <route edges="7 -5"/>
    </vehicle>
    <vehicle id="90" depart="32.00">
        <route edges="9 -5 -4"/>
    </vehicle>
    <vehicle id="91" depart="32.00">
        <route edges="5 -9"/>
    </vehicle>
    <vehicle id="92" depart="33.00">
        <route edges="3 -1 -4"/>
    </vehicle>
    <vehicle id="93" depart="33.00">
        <route edges="5 -9"/>
    </vehicle>
    <vehicle id="94" depart="33.00">
        <route edges="4 5 -8"/>
    </vehicle>
    <vehicle id="95" depart="33.00">
        <route edges="2 -1 -4"/>
    </vehicle>
    <vehicle id="96" depart="34.00">
        <route edges="6 1 -2"/>
    </vehicle>
    <vehicle id="97" depart="34.00">
        <route edges="4 5"/>
    </vehicle>
    <vehicle id="98" depart="35.00">
        <route edges="0 -2"/>
    </vehicle>
    <vehicle id="99" depart="35.00">
        <route edges="7 -5"/>
    </vehicle>
    <vehicle id="100" depart="35.00">
        <route edges="-1 -4"/>
    </vehicle>
    <vehicle id="101" depart="35.00">
        <route edges="1 -3"/>
    </vehicle>
    <vehicle id="104" depart="36.00">
        <route edges="-5 1 -0"/>
    </vehicle>
    <vehicle id="107" depart="38.00">
        <route edges="-1"/>
    </vehicle>
    <vehicle id="109" depart="39.00">
        <route edges="8 -5 1 -2"/>
    </vehicle>
    <vehicle id="110" depart="40.00">
        <route edges="4 1"/>
    </vehicle>
    <vehicle id="111" depart="41.00">
        <route edges="8 -7"/>
    </vehicle>
    <vehicle id="112" depart="41.00">
        <route edges="1 -2"/>
    </vehicle>
    <vehicle id="113" depart="41.00">
        <route edges="0 -1 5 -7"/>
    </vehicle>
    <vehicle id="114" depart="41.00">
        <route edges="8 -5"/>
    </vehicle>
    <vehicle id="116" depart="42.00">
        <route edges="6 1"/>
    </vehicle>
    <vehicle id="118" depart="43.00">
        <route edges="-5 1 -2"/>
    </vehicle>
    <vehicle id="119" depart="44.00">
        <route edges="5 -7"/>
    </vehicle>
    <vehicle id="120" depart="45.00">
        <route edges="0 -3"/>
    </vehicle>
    <vehicle id="122" depart="46.00">
        <route edges="4 1 -3"/>
    </vehicle>
    <vehicle id="123" depart="47.00">
        <route edges="2 -0"/>
    </vehicle>
    <vehicle id="125" depart="48.00">
        <route edges="8 -5 1 -2"/>
    </vehicle>
    <vehicle id="126" depart="48.00">
        <route edges="3 -1 -6"/>
    </vehicle>
    <vehicle id="130" depart="49.00">
        <route edges="2 -1 5"/>
    </vehicle>
    <vehicle id="131" depart="50.00">
        <route edges="6 1 -2"/>
    </vehicle>
    <vehicle id="132" depart="50.00">
        <route edges="2 -1"/>
    </vehicle>
    <vehicle id="133" depart="50.00">
        <route edges="4 5 -9"/>
    </vehicle>
    <vehicle id="134" depart="51.00">
        <route edges="-5 1 -0"/>
    </vehicle>
    <vehicle id="135" depart="51.00">
        <route edges="3 -0"/>
    </vehicle>
    <vehicle id="138" depart="53.00">
        <route edges="2 -1 5"/>
    </vehicle>
    <vehicle id="139" depart="53.00">
        <route edges="2 -1 5 -8"/>
    </vehicle>
    <vehicle id="141" depart="54.00">
        <route edges="8 -9"/>
    </vehicle>
    <vehicle id="142" depart="54.00">
        <route edges="3 -1 5"/>
    </vehicle>
    <vehicle id="144" depart="54.00">
        <route edges="6 5 -7"/>
    </vehicle>
    <vehicle id="145" depart="54.00">
        <route edges="1 -3"/>
    </vehicle>
    <vehicle id="146" depart="55.00">
        <route edges="8 -5 -6"/>
    </vehicle>
    <vehicle id="147" depart="55.00">
        <route edges="-5 1 -2"/>
    </vehicle>
    <vehicle id="148" depart="55.00">
        <route edges="2 -0"/>
    </vehicle>
    <vehicle id="150" depart="57.00">
        <route edges="4 5 -7"/>
    </vehicle>
    <vehicle id="151" depart="57.00">
        <route edges="6 5 -7"/>
    </vehicle>
    <vehicle id="152" depart="57.00">
        <route edges="8 -5 1 -3"/>
    </vehicle>
    <vehicle id="153" depart="59.00">
        <route edges="4 1 -3"/>
    </vehicle>
    <vehicle id="154" depart="59.00">
        <route edges="-5 1 -3"/>
    </vehicle>
    <vehicle id="155" depart="59.00">
        <route edges="6 5 -8"/>
    </vehicle>
    <vehicle id="156" depart="59.00">
        <route edges="5 -7"/>
    </vehicle>
    <vehicle id="159" depart="61.00">
        <route edges="7 -5 -4"/>
    </vehicle>
    <vehicle id="160" depart="62.00">
        <route edges="8 -5"/>
    </vehicle>
    <vehicle id="161" depart="62.00">
        <route edges="5 -9"/>
    </vehicle>
    <vehicle id="162" depart="62.00">
        <route edges="-1 5"/>
    </vehicle>
    <vehicle id="163" depart="62.00">
        <route edges="-1 5 -8"/>
    </vehicle>
    <vehicle id="164" depart="62.00">
        <route edges="4 5 -8"/>
    </vehicle>
    <vehicle id="166" depart="63.00">
        <route edges="9 -5"/>
    </vehicle>
    <vehicle id="167" depart="63.00">
        <route edges="8 -9"/>
    </vehicle>
    <vehicle id="170" depart="66.00">
        <route edges="2 -1 5 -7"/>
    </vehicle>
    <vehicle id="171" depart="66.00">
        <route edges="8 -5"/>
    </vehicle>
    <vehicle id="173" depart="66.00">
        <route edges="2 -1 5 -7"/>
    </vehicle>
    <vehicle id="174" depart="66.00">
        <route edges="8 -5 1 -3"/>
    </vehicle>
    <vehicle id="176" depart="66.00">
        <route edges="3 -1 -6"/>
    </vehicle>
    <vehicle id="177" depart="66.00">
        <route edges="0 -3"/>
    </vehicle>
    <vehicle id="178" depart="67.00">
        <route edges="8 -9"/>
    </vehicle>
    <vehicle id="182" depart="69.00">
        <route edges="5 -8"/>
    </vehicle>
    <vehicle id="183" depart="69.00">
        <route edges="0 -1 -4"/>
    </vehicle>
    <vehicle id="185" depart="69.00">
        <route edges="2 -1 5"/>
    </vehicle>
    <vehicle id="186" depart="70.00">
        <route edges="7 -5 1 -0"/>
    </vehicle>
    <vehicle id="188" depart="71.00">
        <route edges="1 -3"/>
    </vehicle>
    <vehicle id="190" depart="71.00">
        <route edges="-1 5"/>
    </vehicle>
    <vehicle id="192" depart="72.00">
        <route edges="9 -7"/>
    </vehicle>
    <vehicle id="193" depart="72.00">
        <route edges="6 1 -0"/>
    </vehicle>
    <vehicle id="194" depart="73.00">
        <route edges="9 -5 1"/>
    </vehicle>
    <vehicle id="195" depart="73.00">
        <route edges="6 5 -9"/>
    </vehicle>
    <vehicle id="196" depart="73.00">
        <route edges="7 -5 -6"/>
    </vehicle>
    <vehicle id="201" depart="74.00">
        <route edges="0 -1 5"/>
    </vehicle>
    <vehicle id="202" depart="74.00">
        <route edges="2 -1 5 -7"/>
    </vehicle>
    <vehicle id="203" depart="75.00">
        <route edges="-5 -6"/>
    </vehicle>
    <vehicle id="204" depart="75.00">
        <route edges="2 -1 5 -9"/>
    </vehicle>
    <vehicle id="205" depart="75.00">
        <route edges="4 1 -0"/>
    </vehicle>
    <vehicle id="207" depart="76.00">
        <route edges="0 -1 5 -8"/>
    </vehicle>
    <vehicle id="209" depart="77.00">
        <route edges="7 -5 1 -0"/>
    </vehicle>
    <vehicle id="210" depart="77.00">
        <route edges="8 -5 1 -0"/>
    </vehicle>
    <vehicle id="213" depart="78.00">
        <route edges="3 -1 -6"/>
    </vehicle>
    <vehicle id="217" depart="79.00">
        <route edges="7 -5 -4"/>
    </vehicle>
    <vehicle id="218" depart="79.00">
        <route edges="1 -2"/>
    </vehicle>
    <vehicle id="219" depart="80.00">
        <route edges="-1 -4"/>
    </vehicle>
    <vehicle id="220" depart="80.00">
        <route edges="1 -3"/>
    </vehicle>
    <vehicle id="223" depart="81.00">
        <route edges="6 5"/>
    </vehicle>
    <vehicle id="225" depart="83.00">
        <route edges="8 -5 1 -0"/>
    </vehicle>
    <vehicle id="227" depart="85.00">
        <route edges="2 -1 -4"/>
    </vehicle>
    <vehicle id="229" depart="86.00">
        <route edges="2 -1 5 -7"/>
    </vehicle>
    <vehicle id="230" depart="86.00">
        <route edges="0 -1 5 -8"/>
    </vehicle>
    <vehicle id="231" depart="87.00">
        <route edges="8 -5 1 -3"/>
    </vehicle>
    <vehicle id="236" depart="88.00">
        <route edges="2 -1 -6"/>
    </vehicle>
    <vehicle id="237" depart="88.00">
        <route edges="-1 5 -8"/>
    </vehicle>
    <vehicle id="238" depart="89.00">
        <route edges="0 -3"/>
    </vehicle>
    <vehicle id="239" depart="89.00">
        <route edges="5 -8"/>
    </vehicle>
    <vehicle id="241" depart="90.00">
        <route edges="3 -1 5 -8"/>
    </vehicle>
    <vehicle id="243" depart="90.00">
        <route edges="7 -5 -4"/>
    </vehicle>
    <vehicle id="244" depart="90.00">
        <route edges="2 -1 -6"/>
    </vehicle>
    <vehicle id="246" depart="91.00">
        <route edges="3 -1 5 -7"/>
    </vehicle>
    <vehicle id="247" depart="91.00">
        <route edges="3 -1 -6"/>
    </vehicle>
    <vehicle id="248" depart="91.00">
        <route edges="5 -7"/>
    </vehicle>
    <vehicle id="250" depart="92.00">
        <route edges="6 1"/>
    </vehicle>
    <vehicle id="252" depart="92.00">
        <route edges="5 -8"/>
    </vehicle>
    <vehicle id="255" depart="94.00">
        <route edges="9 -5 -6"/>
    </vehicle>
    <vehicle id="256" depart="94.00">
        <route edges="5 -9"/>
    </vehicle>
    <vehicle id="258" depart="95.00">
        <route edges="-1 -6"/>
    </vehicle>
    <vehicle id="259" depart="95.00">
        <route edges="7 -5"/>
    </vehicle>
    <vehicle id="260" depart="95.00">
        <route edges="3 -1 5 -7"/>
    </vehicle>
    <vehicle id="262" depart="97.00">
        <route edges="2 -3"/>
    </vehicle>
    <vehicle id="264" depart="97.00">
        <route edges="0 -2"/>
    </vehicle>
    <vehicle id="265" depart="97.00">
        <route edges="0 -2"/>
    </vehicle>
    <vehicle id="266" depart="98.00">
        <route edges="7 -5 1 -0"/>
    </vehicle>
    <vehicle id="267" depart="99.00">
        <route edges="0 -1 -4"/>
    </vehicle>
    <vehicle id="268" depart="99.00">
        <route edges="4 1 -0"/>
    </vehicle>
    <vehicle id="269" depart="99.00">
        <route edges="2 -1 5"/>
    </vehicle>
    <vehicle id="270" depart="99.00">
        <route edges="3 -1"/>
    </vehicle>
    <vehicle id="271" depart="99.00">
        <route edges="7 -9"/>
    </vehicle>
    <vehicle id="272" depart="100.00">
        <route edges="-1 5 -8"/>
    </vehicle>
    <vehicle id="273" depart="100.00">
        <route edges="6 5 -7"/>
    </vehicle>
    <vehicle id="274" depart="101.00">
        <route edges="2 -3"/>
    </vehicle>
    <vehicle id="276" depart="101.00">
        <route edges="1 -3"/>
    </vehicle>
    <vehicle id="277" depart="102.00">
        <route edges="-1 5 -8"/>
    </vehicle>
    <vehicle id="281" depart="104.00">
        <route edges="9 -5 -4"/>
    </vehicle>
    <vehicle id="283" depart="106.00">
        <route edges="5"/>
    </vehicle>
    <vehicle id="285" depart="106.00">
        <route edges="-5 1"/>
    </vehicle>
    <vehicle id="289" depart="108.00">
        <route edges="0 -1 5 -7"/>
    </vehicle>
    <vehicle id="290" depart="108.00">
        <route edges="-1 -6"/>
    </vehicle>
    <vehicle id="292" depart="109.00">
        <route edges="-1 -4"/>
    </vehicle>
    <vehicle id="296" depart="110.00">
        <route edges="1 -2"/>
    </vehicle>
    <vehicle id="298" depart="110.00">
        <route edges="8 -5 1 -3"/>
    </vehicle>
    <vehicle id="300" depart="112.00">
        <route edges="-1"/>
    </vehicle>
    <vehicle id="301" depart="112.00">
        <route edges="8 -7"/>
    </vehicle>
    <vehicle id="304" depart="113.00">
        <route edges="-1 5"/>
    </vehicle>
    <vehicle id="309" depart="114.00">
        <route edges="8 -5 1"/>
    </vehicle>
    <vehicle id="311" depart="115.00">
        <route edges="3 -1"/>
    </vehicle>
    <vehicle id="312" depart="115.00">
        <route edges="-1 5 -7"/>
    </vehicle>
    <vehicle id="314" depart="115.00">
        <route edges="5 -7"/>
    </vehicle>
    <vehicle id="316" depart="117.00">
        <route edges="-1 -6"/>
    </vehicle>
    <vehicle id="317" depart="118.00">
        <route edges="7 -8"/>
    </vehicle>
    <vehicle id="320" depart="119.00">
        <route edges="4 5 -7"/>
    </vehicle>
    <vehicle id="322" depart="120.00">
        <route edges="2 -1 5 -8"/>
    </vehicle>
    <vehicle id="323" depart="120.00">
        <route edges="8 -5 1 -0"/>
    </vehicle>
    <vehicle id="324" depart="120.00">
        <route edges="5"/>
    </vehicle>
    <vehicle id="325" depart="121.00">
        <route edges="3 -1 -4"/>
    </vehicle>
    <vehicle id="327" depart="122.00">
        <route edges="3 -1 5"/>
    </vehicle>
    <vehicle id="328" depart="122.00">
        <route edges="-5 -6"/>
    </vehicle>
    <vehicle id="329" depart="122.00">
        <route edges="8 -5"/>
    </vehicle>
    <vehicle id="330" depart="122.00">
        <route edges="5"/>
    </vehicle>
    <vehicle id="331" depart="122.00">
        <route edges="2 -1 5 -8"/>
    </vehicle>
    <vehicle id="332" depart="123.00">
        <route edges="6 -4"/>
    </vehicle>
    <vehicle id="334" depart="124.00">
        <route edges="3 -1 5"/>
    </vehicle>
    <vehicle id="335" depart="124.00">
        <route edges="2 -1 5 -8"/>
    </vehicle>
    <vehicle id="336" depart="125.00">
        <route edges="9 -5 1"/>
    </vehicle>
    <vehicle id="337" depart="125.00">
        <route edges="7 -5"/>
    </vehicle>
    <vehicle id="338" depart="125.00">
        <route edges="0 -1 5 -9"/>
    </vehicle>
    <vehicle id="339" depart="126.00">
        <route edges="2 -3"/>
    </vehicle>
    <vehicle id="341" depart="126.00">
        <route edges="9 -5 1"/>
    </vehicle>
    <vehicle id="342" depart="127.00">
        <route edges="8 -5 -6"/>
    </vehicle>
    <vehicle id="343" depart="128.00">
        <route edges="-5 1 -3"/>
    </vehicle>
    <vehicle id="344" depart="128.00">
        <route edges="-5 -6"/>
    </vehicle>
    <vehicle id="347" depart="129.00">
        <route edges="6 5 -9"/>
    </vehicle>
    <vehicle id="350" depart="130.00">
        <route edges="8 -5 1 -0"/>
    </vehicle>
    <vehicle id="351" depart="130.00">
        <route edges="2 -0"/>
    </vehicle>
    <vehicle id="352" depart="131.00">
        <route edges="9 -5 1 -3"/>
    </vehicle>
    <vehicle id="353" depart="131.00">
        <route edges="3 -1 5 -8"/>
    </vehicle>
    <vehicle id="355" depart="132.00">
        <route edges="9 -8"/>
    </vehicle>
    <vehicle id="357" depart="132.00">
        <route edges="5 -7"/>
    </vehicle>
    <vehicle id="358" depart="133.00">
        <route edges="0 -1 -4"/>
    </vehicle>
    <vehicle id="359" depart="133.00">
        <route edges="6 5"/>
    </vehicle>
    <vehicle id="360" depart="133.00">
        <route edges="2 -1"/>
    </vehicle>
    <vehicle id="361" depart="134.00">
        <route edges="6 1 -2"/>
    </vehicle>
    <vehicle id="362" depart="134.00">
        <route edges="5 -7"/>
    </vehicle>
    <vehicle id="363" depart="135.00">
        <route edges="9 -8"/>
    </vehicle>
    <vehicle id="365" depart="135.00">
        <route edges="7 -9"/>
    </vehicle>
    <vehicle id="366" depart="135.00">
        <route edges="-5 1 -0"/>
    </vehicle>
    <vehicle id="367" depart="136.00">
        <route edges="4 1"/>
    </vehicle>
    <vehicle id="369" depart="137.00">
        <route edges="1"/>
    </vehicle>
    <vehicle id="370" depart="140.00">
        <route edges="7 -8"/>
    </vehicle>
    <vehicle id="371" depart="140.00">
        <route edges="2 -1 5 -8"/>
    </vehicle>
    <vehicle id="374" depart="141.00">
        <route edges="2 -1 5 -9"/>
    </vehicle>
    <vehicle id="376" depart="142.00">
        <route edges="6 5 -8"/>
    </vehicle>
    <vehicle id="377" depart="142.00">
        <route edges="3 -2"/>
    </vehicle>
    <vehicle id="378" depart="143.00">
        <route edges="8 -5 1"/>
    </vehicle>
    <vehicle id="379" depart="143.00">
        <route edges="3 -0"/>
    </vehicle>
    <vehicle id="382" depart="144.00">
        <route edges="6 5 -8"/>
    </vehicle>
    <vehicle id="383" depart="144.00">
        <route edges="7 -5 1 -3"/>
    </vehicle>
    <vehicle id="384" depart="145.00">
        <route edges="7 -5 1 -2"/>
    </vehicle>
    <vehicle id="386" depart="145.00">
        <route edges="2 -1 5 -8"/>
    </vehicle>
    <vehicle id="387" depart="146.00">
        <route edges="4 -6"/>
    </vehicle>
    <vehicle id="388" depart="146.00">
        <route edges="3 -1 5 -8"/>
    </vehicle>
    <vehicle id="390" depart="146.00">
        <route edges="-5"/>
    </vehicle>
    <vehicle id="392" depart="147.00">
        <route edges="8 -5 -4"/>
    </vehicle>
    <vehicle id="393" depart="147.00">
        <route edges="5 -8"/>
    </vehicle>
    <vehicle id="394" depart="147.00">
        <route edges="8 -5 -6"/>
    </vehicle>
    <vehicle id="395" depart="147.00">
        <route edges="4 1"/>
    </vehicle>
    <vehicle id="397" depart="148.00">
        <route edges="2 -1 -6"/>
    </vehicle>
    <vehicle id="398" depart="148.00">
        <route edges="-5 1"/>
    </vehicle>
    <vehicle id="399" depart="148.00">
        <route edges="0 -1 5"/>
    </vehicle>
    <vehicle id="400" depart="149.00">
        <route edges="3 -1 -4"/>
    </vehicle>
    <vehicle id="401" depart="149.00">
        <route edges="4 1 -0"/>
    </vehicle>
    <vehicle id="404" depart="151.00">
        <route edges="-1 -6"/>
    </vehicle>
    <vehicle id="405" depart="152.00">
        <route edges="8 -5 1 -2"/>
    </vehicle>
    <vehicle id="410" depart="154.00">
        <route edges="3 -0"/>
    </vehicle>
    <vehicle id="411" depart="154.00">
        <route edges="9 -7"/>
    </vehicle>
    <vehicle id="414" depart="155.00">
        <route edges="2 -1 5"/>
    </vehicle>
    <vehicle id="415" depart="156.00">
        <route edges="-1 -6"/>
    </vehicle>
    <vehicle id="416" depart="157.00">
        <route edges="6 5 -7"/>
    </vehicle>
    <vehicle id="417" depart="157.00">
        <route edges="7 -5 1 -0"/>
    </vehicle>
    <vehicle id="418" depart="158.00">
        <route edges="8 -5 1 -2"/>
    </vehicle>
    <vehicle id="422" depart="159.00">
        <route edges="-1 5 -8"/>
    </vehicle>
    <vehicle id="423" depart="159.00">
        <route edges="9 -5 1 -2"/>
    </vehicle>
    <vehicle id="425" depart="159.00">
        <route edges="9 -7"/>
    </vehicle>
    <vehicle id="426" depart="160.00">
        <route edges="7 -5 1"/>
    </vehicle>
    <vehicle id="427" depart="160.00">
        <route edges="3 -1 5 -8"/>
    </vehicle>
    <vehicle id="428" depart="160.00">
        <route edges="3 -1 5 -8"/>
    </vehicle>
    <vehicle id="430" depart="162.00">
        <route edges="4 1 -0"/>
    </vehicle>
    <vehicle id="431" depart="162.00">
        <route edges="2 -1 -6"/>
    </vehicle>
    <vehicle id="432" depart="162.00">
        <route edges="-1 5"/>
    </vehicle>
    <vehicle id="433" depart="163.00">
        <route edges="3 -1 5"/>
    </vehicle>
    <vehicle id="435" depart="165.00">
        <route edges="4 1 -3"/>
    </vehicle>
    <vehicle id="436" depart="165.00">
        <route edges="-5 1 -0"/>
    </vehicle>
    <vehicle id="437" depart="166.00">
        <route edges="8 -5 -4"/>
    </vehicle>
    <vehicle id="438" depart="167.00">
        <route edges="9 -5"/>
    </vehicle>
    <vehicle id="439" depart="168.00">
        <route edges="5"/>
    </vehicle>
    <vehicle id="441" depart="168.00">
        <route edges="4 5 -8"/>
    </vehicle>
    <vehicle id="442" depart="168.00">
        <route edges="4 5 -8"/>
    </vehicle>
    <vehicle id="443" depart="168.00">
        <route edges="0 -1"/>
    </vehicle>
    <vehicle id="444" depart="169.00">
        <route edges="6 1"/>
    </vehicle>
    <vehicle id="446" depart="169.00">
        <route edges="7 -9"/>
    </vehicle>
    <vehicle id="447" depart="169.00">
        <route edges="-5 1 -0"/>
    </vehicle>
    <vehicle id="448" depart="169.00">
        <route edges="7 -5 1 -0"/>
    </vehicle>
    <vehicle id="451" depart="170.00">
        <route edges="4 5 -8"/>
    </vehicle>
    <vehicle id="452" depart="171.00">
        <route edges="3 -1 -6"/>
    </vehicle>
    <vehicle id="453" depart="171.00">
        <route edges="6 -4"/>
    </vehicle>
    <vehicle id="455" depart="172.00">
        <route edges="5 -9"/>
    </vehicle>
    <vehicle id="456" depart="173.00">
        <route edges="5 -7"/>
    </vehicle>
    <vehicle id="458" depart="173.00">
        <route edges="3 -1 5 -8"/>
    </vehicle>
    <vehicle id="461" depart="175.00">
        <route edges="8 -5 1 -2"/>
    </vehicle>
    <vehicle id="462" depart="175.00">
        <route edges="4 1 -2"/>
    </vehicle>
    <vehicle id="463" depart="176.00">
        <route edges="9 -5 1 -2"/>
    </vehicle>
    <vehicle id="464" depart="176.00">
        <route edges="6 1 -2"/>
    </vehicle>
    <vehicle id="466" depart="177.00">
        <route edges="0 -1 -4"/>
    </vehicle>
    <vehicle id="467" depart="177.00">
        <route edges="0 -1 -4"/>
    </vehicle>
    <vehicle id="468" depart="177.00">
        <route edges="1 -3"/>
    </vehicle>
    <vehicle id="470" depart="178.00">
        <route edges="-1 5 -7"/>
    </vehicle>
    <vehicle id="473" depart="178.00">
        <route edges="8 -5 1 -2"/>
    </vehicle>
    <vehicle id="475" depart="179.00">
        <route edges="4 5 -7"/>
    </vehicle>
    <vehicle id="476" depart="179.00">
        <route edges="-1 5 -9"/>
    </vehicle>
    <vehicle id="478" depart="179.00">
        <route edges="-5"/>
    </vehicle>
    <vehicle id="481" depart="181.00">
        <route edges="4 1"/>
    </vehicle>
    <vehicle id="485" depart="182.00">
        <route edges="7 -5"/>
    </vehicle>
    <vehicle id="490" depart="184.00">
        <route edges="-5"/>
    </vehicle>
    <vehicle id="491" depart="185.00">
        <route edges="7 -5 1 -2"/>
    </vehicle>
    <vehicle id="492" depart="185.00">
        <route edges="4 5 -7"/>
    </vehicle>
    <vehicle id="494" depart="186.00">
        <route edges="7 -5 1 -0"/>
    </vehicle>
    <vehicle id="495" depart="186.00">
        <route edges="-1 5 -8"/>
    </vehicle>
    <vehicle id="498" depart="187.00">
        <route edges="3 -1 5 -7"/>
    </vehicle>
    <vehicle id="501" depart="188.00">
        <route edges="-1 5 -7"/>
    </vehicle>
    <vehicle id="503" depart="189.00">
        <route edges="2 -1 5 -8"/>
    </vehicle>
    <vehicle id="504" depart="190.00">
        <route edges="0 -1 5 -9"/>
    </vehicle>
    <vehicle id="506" depart="191.00">
        <route edges="-5 1"/>
    </vehicle>
    <vehicle id="507" depart="191.00">
        <route edges="0 -1"/>
    </vehicle>
    <vehicle id="508" depart="191.00">
        <route edges="6 1"/>
    </vehicle>
    <vehicle id="509" depart="191.00">
        <route edges="-1 -6"/>
    </vehicle>
    <vehicle id="510" depart="192.00">
        <route edges="-5 -6"/>
    </vehicle>
    <vehicle id="511" depart="192.00">
        <route edges="7 -5 -4"/>
    </vehicle>
    <vehicle id="512" depart="192.00">
        <route edges="-1"/>
    </vehicle>
    <vehicle id="513" depart="192.00">
        <route edges="9 -5 -4"/>
    </vehicle>
    <vehicle id="514" depart="193.00">
        <route edges="-1 5 -7"/>
    </vehicle>
    <vehicle id="515" depart="193.00">
        <route edges="6 5 -8"/>
    </vehicle>
    <vehicle id="516" depart="193.00">
        <route edges="3 -0"/>
    </vehicle>
    <vehicle id="520" depart="194.00">
        <route edges="4 1 -0"/>
    </vehicle>
    <vehicle id="521" depart="195.00">
        <route edges="6 5"/>
    </vehicle>
    <vehicle id="524" depart="195.00">
        <route edges="7 -5 1 -2"/>
    </vehicle>
    <vehicle id="525" depart="195.00">
        <route edges="5 -9"/>
    </vehicle>
    <vehicle id="526" depart="195.00">
        <route edges="-1"/>
    </vehicle>
    <vehicle id="527" depart="196.00">
        <route edges="0 -2"/>
    </vehicle>
    <vehicle id="528" depart="196.00">
        <route edges="5"/>
    </vehicle>
    <vehicle id="529" depart="196.00">
        <route edges="9 -5 1 -0"/>
    </vehicle>
    <vehicle id="530" depart="196.00">
        <route edges="3 -1 5 -8"/>
    </vehicle>
    <vehicle id="531" depart="196.00">
        <route edges="0 -3"/>
    </vehicle>
    <vehicle id="533" depart="197.00">
        <route edges="6 1 -0"/>
    </vehicle>
    <vehicle id="534" depart="197.00">
        <route edges="4 5 -9"/>
    </vehicle>