<?xml version="1.0" encoding="UTF-8"?>

<!-- generated on 03/20/22 14:45:31 by Eclipse SUMO netedit Version 1.4.0
<configuration xmlns:xsi="http://www.w3.org/2001/XMLSchema-instance" xsi:noNamespaceSchemaLocation="http://sumo.dlr.de/xsd/netconvertConfiguration.xsd">

    <input>
        <sumo-net-file value="C:\Users\mukun\Desktop\Projects\TrafficRL\fixedtime.net.xml"/>
    </input>

    <output>
        <output-file value="C:\Users\mukun\Desktop\Projects\TrafficRL\big_net.net.xml"/>
    </output>

    <processing>
        <geometry.min-radius.fix.railways value="false"/>
        <geometry.max-grade.fix value="false"/>
        <offset.disable-normalization value="true"/>
        <lefthand value="false"/>
    </processing>

    <junctions>
        <no-turnarounds value="true"/>
        <junctions.corner-detail value="5"/>
        <junctions.limit-turn-speed value="5.5"/>
        <rectangular-lane-cut value="false"/>
    </junctions>

    <pedestrian>
        <walkingareas value="false"/>
    </pedestrian>

    <report>
        <aggregate-warnings value="5"/>
    </report>

</configuration>
-->

<net version="1.3" junctionCornerDetail="5" limitTurnSpeed="5.50" xmlns:xsi="http://www.w3.org/2001/XMLSchema-instance" xsi:noNamespaceSchemaLocation="http://sumo.dlr.de/xsd/net_file.xsd">

    <location netOffset="0.00,0.00" convBoundary="-100.00,-300.00,400.00,100.00" origBoundary="-10000000000.00,-10000000000.00,10000000000.00,10000000000.00" projParameter="!"/>

    <edge id=":2N_0" function="internal">
        <lane id=":2N_0_0" index="0" speed="6.51" length="9.03" shape="-8.00,-92.80 -8.35,-95.25 -9.40,-97.00 -11.15,-98.05 -13.60,-98.40"/>
    </edge>
    <edge id=":2N_1" function="internal">
        <lane id=":2N_1_0" index="0" speed="13.89" length="14.83" shape="-4.80,-92.80 -4.30,-97.46 -3.20,-100.89 -2.10,-103.88 -1.60,-107.20"/>
    </edge>
    <edge id=":2N_2" function="internal">
        <lane id=":2N_2_0" index="0" speed="9.32" length="7.71" shape="-1.60,-92.80 -0.65,-96.65 2.05,-99.25"/>
    </edge>
    <edge id=":2N_12" function="internal">
        <lane id=":2N_12_0" index="0" speed="9.32" length="11.92" shape="2.05,-99.25 2.20,-99.40 6.95,-101.05 13.60,-101.60"/>
    </edge>
    <edge id=":2N_3" function="internal">
        <lane id=":2N_3_0" index="0" speed="6.51" length="9.03" shape="13.60,-98.40 11.15,-98.05 9.40,-97.00 8.35,-95.25 8.00,-92.80"/>
    </edge>
    <edge id=":2N_4" function="internal">
        <lane id=":2N_4_0" index="0" speed="13.89" length="27.20" shape="13.60,-98.40 -13.60,-98.40"/>
    </edge>
    <edge id=":2N_5" function="internal">
        <lane id=":2N_5_0" index="0" speed="9.32" length="19.63" shape="13.60,-98.40 6.95,-98.95 2.20,-100.60 -0.65,-103.35 -1.60,-107.20"/>
    </edge>
    <edge id=":2N_6" function="internal">
        <lane id=":2N_6_0" index="0" speed="8.10" length="14.57" shape="1.60,-107.20 2.35,-104.75 4.60,-103.00 8.35,-101.95 13.60,-101.60"/>
    </edge>
    <edge id=":2N_7" function="internal">
        <lane id=":2N_7_0" index="0" speed="13.89" length="14.83" shape="1.60,-107.20 2.10,-103.88 3.20,-100.89 4.30,-97.46 4.80,-92.80"/>
    </edge>
    <edge id=":2N_8" function="internal">
        <lane id=":2N_8_0" index="0" speed="9.32" length="6.64" shape="1.60,-107.20 0.65,-103.35 -1.27,-101.49"/>
    </edge>
    <edge id=":2N_13" function="internal">
        <lane id=":2N_13_0" index="0" speed="9.32" length="12.99" shape="-1.27,-101.49 -2.20,-100.60 -6.95,-98.95 -13.60,-98.40"/>
    </edge>
    <edge id=":2N_9" function="internal">
        <lane id=":2N_9_0" index="0" speed="8.10" length="14.57" shape="-13.60,-101.60 -8.35,-101.95 -4.60,-103.00 -2.35,-104.75 -1.60,-107.20"/>
    </edge>
    <edge id=":2N_10" function="internal">
        <lane id=":2N_10_0" index="0" speed="13.89" length="27.20" shape="-13.60,-101.60 13.60,-101.60"/>
    </edge>
    <edge id=":2N_11" function="internal">
        <lane id=":2N_11_0" index="0" speed="9.32" length="19.63" shape="-13.60,-101.60 -6.95,-101.05 -2.20,-99.40 0.65,-96.65 1.60,-92.80"/>
    </edge>
    <edge id=":6N_0" function="internal">
        <lane id=":6N_0_0" index="0" speed="6.51" length="9.03" shape="92.00,-92.80 91.65,-95.25 90.60,-97.00 88.85,-98.05 86.40,-98.40"/>
    </edge>
    <edge id=":6N_1" function="internal">
        <lane id=":6N_1_0" index="0" speed="13.89" length="14.83" shape="95.20,-92.80 95.70,-97.46 96.80,-100.89 97.90,-103.88 98.40,-107.20"/>
    </edge>
    <edge id=":6N_2" function="internal">
        <lane id=":6N_2_0" index="0" speed="9.32" length="7.71" shape="98.40,-92.80 99.35,-96.65 102.05,-99.25"/>
    </edge>
    <edge id=":6N_12" function="internal">
        <lane id=":6N_12_0" index="0" speed="9.32" length="11.92" shape="102.05,-99.25 102.20,-99.40 106.95,-101.05 113.60,-101.60"/>
    </edge>
    <edge id=":6N_3" function="internal">
        <lane id=":6N_3_0" index="0" speed="6.51" length="9.03" shape="113.60,-98.40 111.15,-98.05 109.40,-97.00 108.35,-95.25 108.00,-92.80"/>
    </edge>
    <edge id=":6N_4" function="internal">
        <lane id=":6N_4_0" index="0" speed="13.89" length="27.20" shape="113.60,-98.40 86.40,-98.40"/>
    </edge>
    <edge id=":6N_5" function="internal">
        <lane id=":6N_5_0" index="0" speed="9.32" length="19.63" shape="113.60,-98.40 106.95,-98.95 102.20,-100.60 99.35,-103.35 98.40,-107.20"/>
    </edge>
    <edge id=":6N_6" function="internal">
        <lane id=":6N_6_0" index="0" speed="8.10" length="14.57" shape="101.60,-107.20 102.35,-104.75 104.60,-103.00 108.35,-101.95 113.60,-101.60"/>
    </edge>
    <edge id=":6N_7" function="internal">
        <lane id=":6N_7_0" index="0" speed="13.89" length="14.83" shape="101.60,-107.20 102.10,-103.88 103.20,-100.89 104.30,-97.46 104.80,-92.80"/>
    </edge>
    <edge id=":6N_8" function="internal">
        <lane id=":6N_8_0" index="0" speed="9.32" length="6.64" shape="101.60,-107.20 100.65,-103.35 98.73,-101.49"/>
    </edge>
    <edge id=":6N_13" function="internal">
        <lane id=":6N_13_0" index="0" speed="9.32" length="12.99" shape="98.73,-101.49 97.80,-100.60 93.05,-98.95 86.40,-98.40"/>
    </edge>
    <edge id=":6N_9" function="internal">
        <lane id=":6N_9_0" index="0" speed="8.10" length="14.57" shape="86.40,-101.60 91.65,-101.95 95.40,-103.00 97.65,-104.75 98.40,-107.20"/>
    </edge>
    <edge id=":6N_10" function="internal">
        <lane id=":6N_10_0" index="0" speed="13.89" length="27.20" shape="86.40,-101.60 113.60,-101.60"/>
    </edge>
    <edge id=":6N_11" function="internal">
        <lane id=":6N_11_0" index="0" speed="9.32" length="19.63" shape="86.40,-101.60 93.05,-101.05 97.80,-99.40 100.65,-96.65 101.60,-92.80"/>
    </edge>
    <edge id=":8N_0" function="internal">
        <lane id=":8N_0_0" index="0" speed="6.51" length="9.03" shape="292.00,13.60 291.65,11.15 290.60,9.40 288.85,8.35 286.40,8.00"/>
    </edge>
    <edge id=":8N_1" function="internal">
        <lane id=":8N_1_0" index="0" speed="13.89" length="27.42" shape="295.20,13.60 295.70,4.28 296.80,-3.26 297.90,-9.17 298.40,-13.60"/>
    </edge>
    <edge id=":8N_2" function="internal">
        <lane id=":8N_2_0" index="0" speed="10.36" length="24.51" shape="298.40,13.60 299.35,6.95 302.20,2.20 306.95,-0.65 313.60,-1.60"/>
    </edge>
    <edge id=":8N_3" function="internal">
        <lane id=":8N_3_0" index="0" speed="6.51" length="9.03" shape="313.60,8.00 311.15,8.35 309.40,9.40 308.35,11.15 308.00,13.60"/>
    </edge>
    <edge id=":8N_4" function="internal">
        <lane id=":8N_4_0" index="0" speed="13.89" length="27.20" shape="313.60,8.00 286.40,8.00"/>
        <lane id=":8N_4_1" index="1" speed="13.89" length="27.20" shape="313.60,4.80 286.40,4.80"/>
        <lane id=":8N_4_2" index="2" speed="13.89" length="27.20" shape="313.60,1.60 286.40,1.60"/>
    </edge>
    <edge id=":8N_7" function="internal">
        <lane id=":8N_7_0" index="0" speed="10.36" length="7.98" shape="313.60,1.60 306.95,0.65 305.87,0.00"/>
    </edge>
    <edge id=":8N_16" function="internal">
        <lane id=":8N_16_0" index="0" speed="10.36" length="16.53" shape="305.87,0.00 302.20,-2.20 299.35,-6.95 298.40,-13.60"/>
    </edge>
    <edge id=":8N_8" function="internal">
        <lane id=":8N_8_0" index="0" speed="8.10" length="14.57" shape="301.60,-13.60 302.35,-11.15 304.60,-9.40 308.35,-8.35 313.60,-8.00"/>
    </edge>
    <edge id=":8N_9" function="internal">
        <lane id=":8N_9_0" index="0" speed="13.89" length="27.42" shape="301.60,-13.60 302.10,-9.17 303.20,-3.26 304.30,4.28 304.80,13.60"/>
    </edge>
    <edge id=":8N_10" function="internal">
        <lane id=":8N_10_0" index="0" speed="10.36" length="24.51" shape="301.60,-13.60 300.65,-6.95 297.80,-2.20 293.05,0.65 286.40,1.60"/>
    </edge>
    <edge id=":8N_11" function="internal">
        <lane id=":8N_11_0" index="0" speed="8.10" length="14.57" shape="286.40,-8.00 291.65,-8.35 295.40,-9.40 297.65,-11.15 298.40,-13.60"/>
    </edge>
    <edge id=":8N_12" function="internal">
        <lane id=":8N_12_0" index="0" speed="13.89" length="27.20" shape="286.40,-8.00 313.60,-8.00"/>
        <lane id=":8N_12_1" index="1" speed="13.89" length="27.20" shape="286.40,-4.80 313.60,-4.80"/>
        <lane id=":8N_12_2" index="2" speed="13.89" length="27.20" shape="286.40,-1.60 313.60,-1.60"/>
    </edge>
    <edge id=":8N_15" function="internal">
        <lane id=":8N_15_0" index="0" speed="10.36" length="7.98" shape="286.40,-1.60 293.05,-0.65 294.13,-0.00"/>
    </edge>
    <edge id=":8N_17" function="internal">
        <lane id=":8N_17_0" index="0" speed="10.36" length="16.53" shape="294.13,-0.00 297.80,2.20 300.65,6.95 301.60,13.60"/>
    </edge>
    <edge id=":9N_0" function="internal">
        <lane id=":9N_0_0" index="0" speed="6.51" length="9.03" shape="192.00,-92.80 191.65,-95.25 190.60,-97.00 188.85,-98.05 186.40,-98.40"/>
    </edge>
    <edge id=":9N_1" function="internal">
        <lane id=":9N_1_0" index="0" speed="13.89" length="14.83" shape="195.20,-92.80 195.70,-97.46 196.80,-100.89 197.90,-103.88 198.40,-107.20"/>
    </edge>
    <edge id=":9N_2" function="internal">
        <lane id=":9N_2_0" index="0" speed="9.32" length="7.71" shape="198.40,-92.80 199.35,-96.65 202.05,-99.25"/>
    </edge>
    <edge id=":9N_12" function="internal">
        <lane id=":9N_12_0" index="0" speed="9.32" length="11.92" shape="202.05,-99.25 202.20,-99.40 206.95,-101.05 213.60,-101.60"/>
    </edge>
    <edge id=":9N_3" function="internal">
        <lane id=":9N_3_0" index="0" speed="6.51" length="9.03" shape="213.60,-98.40 211.15,-98.05 209.40,-97.00 208.35,-95.25 208.00,-92.80"/>
    </edge>
    <edge id=":9N_4" function="internal">
        <lane id=":9N_4_0" index="0" speed="13.89" length="27.20" shape="213.60,-98.40 186.40,-98.40"/>
    </edge>
    <edge id=":9N_5" function="internal">
        <lane id=":9N_5_0" index="0" speed="9.32" length="19.63" shape="213.60,-98.40 206.95,-98.95 202.20,-100.60 199.35,-103.35 198.40,-107.20"/>
    </edge>
    <edge id=":9N_6" function="internal">
        <lane id=":9N_6_0" index="0" speed="8.10" length="14.57" shape="201.60,-107.20 202.35,-104.75 204.60,-103.00 208.35,-101.95 213.60,-101.60"/>
    </edge>
    <edge id=":9N_7" function="internal">
        <lane id=":9N_7_0" index="0" speed="13.89" length="14.83" shape="201.60,-107.20 202.10,-103.88 203.20,-100.89 204.30,-97.46 204.80,-92.80"/>
    </edge>
    <edge id=":9N_8" function="internal">
        <lane id=":9N_8_0" index="0" speed="9.32" length="6.64" shape="201.60,-107.20 200.65,-103.35 198.73,-101.49"/>
    </edge>
    <edge id=":9N_13" function="internal">
        <lane id=":9N_13_0" index="0" speed="9.32" length="12.99" shape="198.73,-101.49 197.80,-100.60 193.05,-98.95 186.40,-98.40"/>
    </edge>
    <edge id=":9N_9" function="internal">
        <lane id=":9N_9_0" index="0" speed="8.10" length="14.57" shape="186.40,-101.60 191.65,-101.95 195.40,-103.00 197.65,-104.75 198.40,-107.20"/>
    </edge>
    <edge id=":9N_10" function="internal">
        <lane id=":9N_10_0" index="0" speed="13.89" length="27.20" shape="186.40,-101.60 213.60,-101.60"/>
    </edge>
    <edge id=":9N_11" function="internal">
        <lane id=":9N_11_0" index="0" speed="9.32" length="19.63" shape="186.40,-101.60 193.05,-101.05 197.80,-99.40 200.65,-96.65 201.60,-92.80"/>
    </edge>
    <edge id=":TJ1_0" function="internal">
        <lane id=":TJ1_0_0" index="0" speed="6.51" length="9.03" shape="-8.00,13.60 -8.35,11.15 -9.40,9.40 -11.15,8.35 -13.60,8.00"/>
    </edge>
    <edge id=":TJ1_1" function="internal">
        <lane id=":TJ1_1_0" index="0" speed="13.89" length="27.20" shape="-4.80,13.60 -4.80,-13.60"/>
    </edge>
    <edge id=":TJ1_2" function="internal">
        <lane id=":TJ1_2_0" index="0" speed="10.36" length="24.51" shape="-1.60,13.60 -0.65,6.95 2.20,2.20 6.95,-0.65 13.60,-1.60"/>
    </edge>
    <edge id=":TJ1_3" function="internal">
        <lane id=":TJ1_3_0" index="0" speed="6.51" length="9.03" shape="13.60,8.00 11.15,8.35 9.40,9.40 8.35,11.15 8.00,13.60"/>
    </edge>
    <edge id=":TJ1_4" function="internal">
        <lane id=":TJ1_4_0" index="0" speed="13.89" length="27.20" shape="13.60,4.80 -13.60,4.80"/>
    </edge>
    <edge id=":TJ1_5" function="internal">
        <lane id=":TJ1_5_0" index="0" speed="10.36" length="24.51" shape="13.60,1.60 6.95,0.65 2.20,-2.20 -0.65,-6.95 -1.60,-13.60"/>
    </edge>
    <edge id=":TJ1_6" function="internal">
        <lane id=":TJ1_6_0" index="0" speed="6.51" length="9.03" shape="8.00,-13.60 8.35,-11.15 9.40,-9.40 11.15,-8.35 13.60,-8.00"/>
    </edge>
    <edge id=":TJ1_7" function="internal">
        <lane id=":TJ1_7_0" index="0" speed="13.89" length="27.20" shape="4.80,-13.60 4.80,13.60"/>
    </edge>
    <edge id=":TJ1_8" function="internal">
        <lane id=":TJ1_8_0" index="0" speed="10.36" length="24.51" shape="1.60,-13.60 0.65,-6.95 -2.20,-2.20 -6.95,0.65 -13.60,1.60"/>
    </edge>
    <edge id=":TJ1_9" function="internal">
        <lane id=":TJ1_9_0" index="0" speed="6.51" length="9.03" shape="-13.60,-8.00 -11.15,-8.35 -9.40,-9.40 -8.35,-11.15 -8.00,-13.60"/>
    </edge>
    <edge id=":TJ1_10" function="internal">
        <lane id=":TJ1_10_0" index="0" speed="13.89" length="27.20" shape="-13.60,-4.80 13.60,-4.80"/>
    </edge>
    <edge id=":TJ1_11" function="internal">
        <lane id=":TJ1_11_0" index="0" speed="10.36" length="24.51" shape="-13.60,-1.60 -6.95,-0.65 -2.20,2.20 0.65,6.95 1.60,13.60"/>
    </edge>
    <edge id=":TJ2_0" function="internal">
        <lane id=":TJ2_0_0" index="0" speed="6.51" length="9.03" shape="92.00,13.60 91.65,11.15 90.60,9.40 88.85,8.35 86.40,8.00"/>
    </edge>
    <edge id=":TJ2_1" function="internal">
        <lane id=":TJ2_1_0" index="0" speed="13.89" length="27.20" shape="95.20,13.60 95.20,-13.60"/>
    </edge>
    <edge id=":TJ2_2" function="internal">
        <lane id=":TJ2_2_0" index="0" speed="10.36" length="24.51" shape="98.40,13.60 99.35,6.95 102.20,2.20 106.95,-0.65 113.60,-1.60"/>
    </edge>
    <edge id=":TJ2_3" function="internal">
        <lane id=":TJ2_3_0" index="0" speed="6.51" length="9.03" shape="113.60,8.00 111.15,8.35 109.40,9.40 108.35,11.15 108.00,13.60"/>
    </edge>
    <edge id=":TJ2_4" function="internal">
        <lane id=":TJ2_4_0" index="0" speed="13.89" length="27.20" shape="113.60,4.80 86.40,4.80"/>
    </edge>
    <edge id=":TJ2_5" function="internal">
        <lane id=":TJ2_5_0" index="0" speed="10.36" length="24.51" shape="113.60,1.60 106.95,0.65 102.20,-2.20 99.35,-6.95 98.40,-13.60"/>
    </edge>
    <edge id=":TJ2_6" function="internal">
        <lane id=":TJ2_6_0" index="0" speed="6.51" length="9.03" shape="108.00,-13.60 108.35,-11.15 109.40,-9.40 111.15,-8.35 113.60,-8.00"/>
    </edge>
    <edge id=":TJ2_7" function="internal">
        <lane id=":TJ2_7_0" index="0" speed="13.89" length="27.20" shape="104.80,-13.60 104.80,13.60"/>
    </edge>
    <edge id=":TJ2_8" function="internal">
        <lane id=":TJ2_8_0" index="0" speed="10.36" length="24.51" shape="101.60,-13.60 100.65,-6.95 97.80,-2.20 93.05,0.65 86.40,1.60"/>
    </edge>
    <edge id=":TJ2_9" function="internal">
        <lane id=":TJ2_9_0" index="0" speed="6.51" length="9.03" shape="86.40,-8.00 88.85,-8.35 90.60,-9.40 91.65,-11.15 92.00,-13.60"/>
    </edge>
    <edge id=":TJ2_10" function="internal">
        <lane id=":TJ2_10_0" index="0" speed="13.89" length="27.20" shape="86.40,-4.80 113.60,-4.80"/>
    </edge>
    <edge id=":TJ2_11" function="internal">
        <lane id=":TJ2_11_0" index="0" speed="10.36" length="24.51" shape="86.40,-1.60 93.05,-0.65 97.80,2.20 100.65,6.95 101.60,13.60"/>
    </edge>
    <edge id=":TJ3_0" function="internal">
        <lane id=":TJ3_0_0" index="0" speed="6.51" length="9.03" shape="192.00,13.60 191.65,11.15 190.60,9.40 188.85,8.35 186.40,8.00"/>
    </edge>
    <edge id=":TJ3_1" function="internal">
        <lane id=":TJ3_1_0" index="0" speed="13.89" length="27.20" shape="195.20,13.60 195.20,-13.60"/>
    </edge>
    <edge id=":TJ3_2" function="internal">
        <lane id=":TJ3_2_0" index="0" speed="10.36" length="24.51" shape="198.40,13.60 199.35,6.95 202.20,2.20 206.95,-0.65 213.60,-1.60"/>
    </edge>
    <edge id=":TJ3_3" function="internal">
        <lane id=":TJ3_3_0" index="0" speed="6.51" length="9.03" shape="213.60,8.00 211.15,8.35 209.40,9.40 208.35,11.15 208.00,13.60"/>
    </edge>
    <edge id=":TJ3_4" function="internal">
        <lane id=":TJ3_4_0" index="0" speed="13.89" length="27.20" shape="213.60,4.80 186.40,4.80"/>
    </edge>
    <edge id=":TJ3_5" function="internal">
        <lane id=":TJ3_5_0" index="0" speed="10.36" length="24.51" shape="213.60,1.60 206.95,0.65 202.20,-2.20 199.35,-6.95 198.40,-13.60"/>
    </edge>
    <edge id=":TJ3_6" function="internal">
        <lane id=":TJ3_6_0" index="0" speed="6.51" length="9.03" shape="208.00,-13.60 208.35,-11.15 209.40,-9.40 211.15,-8.35 213.60,-8.00"/>
    </edge>
    <edge id=":TJ3_7" function="internal">
        <lane id=":TJ3_7_0" index="0" speed="13.89" length="27.20" shape="204.80,-13.60 204.80,13.60"/>
    </edge>
    <edge id=":TJ3_8" function="internal">
        <lane id=":TJ3_8_0" index="0" speed="10.36" length="24.51" shape="201.60,-13.60 200.65,-6.95 197.80,-2.20 193.05,0.65 186.40,1.60"/>
    </edge>
    <edge id=":TJ3_9" function="internal">
        <lane id=":TJ3_9_0" index="0" speed="6.51" length="9.03" shape="186.40,-8.00 188.85,-8.35 190.60,-9.40 191.65,-11.15 192.00,-13.60"/>
    </edge>
    <edge id=":TJ3_10" function="internal">
        <lane id=":TJ3_10_0" index="0" speed="13.89" length="27.20" shape="186.40,-4.80 213.60,-4.80"/>
    </edge>
    <edge id=":TJ3_11" function="internal">
        <lane id=":TJ3_11_0" index="0" speed="10.36" length="24.51" shape="186.40,-1.60 193.05,-0.65 197.80,2.20 200.65,6.95 201.60,13.60"/>
    </edge>
    <edge id=":gneJ10_0" function="internal">
        <lane id=":gneJ10_0_0" index="0" speed="6.51" length="9.03" shape="-1.60,-192.80 -1.95,-195.25 -3.00,-197.00 -4.75,-198.05 -7.20,-198.40"/>
    </edge>
    <edge id=":gneJ10_1" function="internal">
        <lane id=":gneJ10_1_0" index="0" speed="13.89" length="14.40" shape="-1.60,-192.80 -1.60,-207.20"/>
    </edge>
    <edge id=":gneJ10_2" function="internal">
        <lane id=":gneJ10_2_0" index="0" speed="8.00" length="5.93" shape="-1.60,-192.80 -1.05,-196.65 0.00,-198.40"/>
    </edge>
    <edge id=":gneJ10_12" function="internal">
        <lane id=":gneJ10_12_0" index="0" speed="8.00" length="8.26" shape="0.00,-198.40 0.60,-199.40 3.35,-201.05 7.20,-201.60"/>
    </edge>
    <edge id=":gneJ10_3" function="internal">
        <lane id=":gneJ10_3_0" index="0" speed="6.51" length="9.03" shape="7.20,-198.40 4.75,-198.05 3.00,-197.00 1.95,-195.25 1.60,-192.80"/>
    </edge>
    <edge id=":gneJ10_4" function="internal">
        <lane id=":gneJ10_4_0" index="0" speed="13.89" length="14.40" shape="7.20,-198.40 -7.20,-198.40"/>
    </edge>
    <edge id=":gneJ10_5" function="internal">
        <lane id=":gneJ10_5_0" index="0" speed="8.00" length="14.19" shape="7.20,-198.40 3.35,-198.95 0.60,-200.60 -1.05,-203.35 -1.60,-207.20"/>
    </edge>
    <edge id=":gneJ10_6" function="internal">
        <lane id=":gneJ10_6_0" index="0" speed="6.51" length="9.03" shape="1.60,-207.20 1.95,-204.75 3.00,-203.00 4.75,-201.95 7.20,-201.60"/>
    </edge>
    <edge id=":gneJ10_7" function="internal">
        <lane id=":gneJ10_7_0" index="0" speed="13.89" length="14.40" shape="1.60,-207.20 1.60,-192.80"/>
    </edge>
    <edge id=":gneJ10_8" function="internal">
        <lane id=":gneJ10_8_0" index="0" speed="8.00" length="5.93" shape="1.60,-207.20 1.05,-203.35 -0.00,-201.60"/>
    </edge>
    <edge id=":gneJ10_13" function="internal">
        <lane id=":gneJ10_13_0" index="0" speed="8.00" length="8.26" shape="-0.00,-201.60 -0.60,-200.60 -3.35,-198.95 -7.20,-198.40"/>
    </edge>
    <edge id=":gneJ10_9" function="internal">
        <lane id=":gneJ10_9_0" index="0" speed="6.51" length="9.03" shape="-7.20,-201.60 -4.75,-201.95 -3.00,-203.00 -1.95,-204.75 -1.60,-207.20"/>
    </edge>
    <edge id=":gneJ10_10" function="internal">
        <lane id=":gneJ10_10_0" index="0" speed="13.89" length="14.40" shape="-7.20,-201.60 7.20,-201.60"/>
    </edge>
    <edge id=":gneJ10_11" function="internal">
        <lane id=":gneJ10_11_0" index="0" speed="8.00" length="14.19" shape="-7.20,-201.60 -3.35,-201.05 -0.60,-199.40 1.05,-196.65 1.60,-192.80"/>
    </edge>
    <edge id=":gneJ11_0" function="internal">
        <lane id=":gneJ11_0_0" index="0" speed="6.51" length="9.03" shape="298.40,-192.80 298.05,-195.25 297.00,-197.00 295.25,-198.05 292.80,-198.40"/>
    </edge>
    <edge id=":gneJ11_1" function="internal">
        <lane id=":gneJ11_1_0" index="0" speed="13.89" length="14.40" shape="298.40,-192.80 298.40,-207.20"/>
    </edge>
    <edge id=":gneJ11_2" function="internal">
        <lane id=":gneJ11_2_0" index="0" speed="8.00" length="5.93" shape="298.40,-192.80 298.95,-196.65 300.00,-198.40"/>
    </edge>
    <edge id=":gneJ11_12" function="internal">
        <lane id=":gneJ11_12_0" index="0" speed="8.00" length="8.26" shape="300.00,-198.40 300.60,-199.40 303.35,-201.05 307.20,-201.60"/>
    </edge>
    <edge id=":gneJ11_3" function="internal">
        <lane id=":gneJ11_3_0" index="0" speed="6.51" length="9.03" shape="307.20,-198.40 304.75,-198.05 303.00,-197.00 301.95,-195.25 301.60,-192.80"/>
    </edge>
    <edge id=":gneJ11_4" function="internal">
        <lane id=":gneJ11_4_0" index="0" speed="13.89" length="14.40" shape="307.20,-198.40 292.80,-198.40"/>
    </edge>
    <edge id=":gneJ11_5" function="internal">
        <lane id=":gneJ11_5_0" index="0" speed="8.00" length="14.19" shape="307.20,-198.40 303.35,-198.95 300.60,-200.60 298.95,-203.35 298.40,-207.20"/>
    </edge>
    <edge id=":gneJ11_6" function="internal">
        <lane id=":gneJ11_6_0" index="0" speed="6.51" length="9.03" shape="301.60,-207.20 301.95,-204.75 303.00,-203.00 304.75,-201.95 307.20,-201.60"/>
    </edge>
    <edge id=":gneJ11_7" function="internal">
        <lane id=":gneJ11_7_0" index="0" speed="13.89" length="14.40" shape="301.60,-207.20 301.60,-192.80"/>
    </edge>
    <edge id=":gneJ11_8" function="internal">
        <lane id=":gneJ11_8_0" index="0" speed="8.00" length="5.93" shape="301.60,-207.20 301.05,-203.35 300.00,-201.60"/>
    </edge>
    <edge id=":gneJ11_13" function="internal">
        <lane id=":gneJ11_13_0" index="0" speed="8.00" length="8.26" shape="300.00,-201.60 299.40,-200.60 296.65,-198.95 292.80,-198.40"/>
    </edge>
    <edge id=":gneJ11_9" function="internal">
        <lane id=":gneJ11_9_0" index="0" speed="6.51" length="9.03" shape="292.80,-201.60 295.25,-201.95 297.00,-203.00 298.05,-204.75 298.40,-207.20"/>
    </edge>
    <edge id=":gneJ11_10" function="internal">
        <lane id=":gneJ11_10_0" index="0" speed="13.89" length="14.40" shape="292.80,-201.60 307.20,-201.60"/>
    </edge>
    <edge id=":gneJ11_11" function="internal">
        <lane id=":gneJ11_11_0" index="0" speed="8.00" length="14.19" shape="292.80,-201.60 296.65,-201.05 299.40,-199.40 301.05,-196.65 301.60,-192.80"/>
    </edge>
    <edge id=":gneJ6_0" function="internal">
        <lane id=":gneJ6_0_0" index="0" speed="6.51" length="9.03" shape="298.40,-92.80 298.05,-95.25 297.00,-97.00 295.25,-98.05 292.80,-98.40"/>
    </edge>
    <edge id=":gneJ6_1" function="internal">
        <lane id=":gneJ6_1_0" index="0" speed="13.89" length="14.40" shape="298.40,-92.80 298.40,-107.20"/>
    </edge>
    <edge id=":gneJ6_2" function="internal">
        <lane id=":gneJ6_2_0" index="0" speed="8.00" length="5.93" shape="298.40,-92.80 298.95,-96.65 300.00,-98.40"/>
    </edge>
    <edge id=":gneJ6_12" function="internal">
        <lane id=":gneJ6_12_0" index="0" speed="8.00" length="8.26" shape="300.00,-98.40 300.60,-99.40 303.35,-101.05 307.20,-101.60"/>
    </edge>
    <edge id=":gneJ6_3" function="internal">
        <lane id=":gneJ6_3_0" index="0" speed="6.51" length="9.03" shape="307.20,-98.40 304.75,-98.05 303.00,-97.00 301.95,-95.25 301.60,-92.80"/>
    </edge>
    <edge id=":gneJ6_4" function="internal">
        <lane id=":gneJ6_4_0" index="0" speed="13.89" length="14.40" shape="307.20,-98.40 292.80,-98.40"/>
    </edge>
    <edge id=":gneJ6_5" function="internal">
        <lane id=":gneJ6_5_0" index="0" speed="8.00" length="14.19" shape="307.20,-98.40 303.35,-98.95 300.60,-100.60 298.95,-103.35 298.40,-107.20"/>
    </edge>
    <edge id=":gneJ6_6" function="internal">
        <lane id=":gneJ6_6_0" index="0" speed="6.51" length="9.03" shape="301.60,-107.20 301.95,-104.75 303.00,-103.00 304.75,-101.95 307.20,-101.60"/>
    </edge>
    <edge id=":gneJ6_7" function="internal">
        <lane id=":gneJ6_7_0" index="0" speed="13.89" length="14.40" shape="301.60,-107.20 301.60,-92.80"/>
    </edge>
    <edge id=":gneJ6_8" function="internal">
        <lane id=":gneJ6_8_0" index="0" speed="8.00" length="5.93" shape="301.60,-107.20 301.05,-103.35 300.00,-101.60"/>
    </edge>
    <edge id=":gneJ6_13" function="internal">
        <lane id=":gneJ6_13_0" index="0" speed="8.00" length="8.26" shape="300.00,-101.60 299.40,-100.60 296.65,-98.95 292.80,-98.40"/>
    </edge>
    <edge id=":gneJ6_9" function="internal">
        <lane id=":gneJ6_9_0" index="0" speed="6.51" length="9.03" shape="292.80,-101.60 295.25,-101.95 297.00,-103.00 298.05,-104.75 298.40,-107.20"/>
    </edge>
    <edge id=":gneJ6_10" function="internal">
        <lane id=":gneJ6_10_0" index="0" speed="13.89" length="14.40" shape="292.80,-101.60 307.20,-101.60"/>
    </edge>
    <edge id=":gneJ6_11" function="internal">
        <lane id=":gneJ6_11_0" index="0" speed="8.00" length="14.19" shape="292.80,-101.60 296.65,-101.05 299.40,-99.40 301.05,-96.65 301.60,-92.80"/>
    </edge>
    <edge id=":gneJ8_0" function="internal">
        <lane id=":gneJ8_0_0" index="0" speed="6.51" length="9.03" shape="198.40,-192.80 198.05,-195.25 197.00,-197.00 195.25,-198.05 192.80,-198.40"/>
    </edge>
    <edge id=":gneJ8_1" function="internal">
        <lane id=":gneJ8_1_0" index="0" speed="13.89" length="14.40" shape="198.40,-192.80 198.40,-207.20"/>
    </edge>
    <edge id=":gneJ8_2" function="internal">
        <lane id=":gneJ8_2_0" index="0" speed="8.00" length="5.93" shape="198.40,-192.80 198.95,-196.65 200.00,-198.40"/>
    </edge>
    <edge id=":gneJ8_12" function="internal">
        <lane id=":gneJ8_12_0" index="0" speed="8.00" length="8.26" shape="200.00,-198.40 200.60,-199.40 203.35,-201.05 207.20,-201.60"/>
    </edge>
    <edge id=":gneJ8_3" function="internal">
        <lane id=":gneJ8_3_0" index="0" speed="6.51" length="9.03" shape="207.20,-198.40 204.75,-198.05 203.00,-197.00 201.95,-195.25 201.60,-192.80"/>
    </edge>
    <edge id=":gneJ8_4" function="internal">
        <lane id=":gneJ8_4_0" index="0" speed="13.89" length="14.40" shape="207.20,-198.40 192.80,-198.40"/>
    </edge>
    <edge id=":gneJ8_5" function="internal">
        <lane id=":gneJ8_5_0" index="0" speed="8.00" length="14.19" shape="207.20,-198.40 203.35,-198.95 200.60,-200.60 198.95,-203.35 198.40,-207.20"/>
    </edge>
    <edge id=":gneJ8_6" function="internal">
        <lane id=":gneJ8_6_0" index="0" speed="6.51" length="9.03" shape="201.60,-207.20 201.95,-204.75 203.00,-203.00 204.75,-201.95 207.20,-201.60"/>
    </edge>
    <edge id=":gneJ8_7" function="internal">
        <lane id=":gneJ8_7_0" index="0" speed="13.89" length="14.40" shape="201.60,-207.20 201.60,-192.80"/>
    </edge>
    <edge id=":gneJ8_8" function="internal">
        <lane id=":gneJ8_8_0" index="0" speed="8.00" length="5.93" shape="201.60,-207.20 201.05,-203.35 200.00,-201.60"/>
    </edge>
    <edge id=":gneJ8_13" function="internal">
        <lane id=":gneJ8_13_0" index="0" speed="8.00" length="8.26" shape="200.00,-201.60 199.40,-200.60 196.65,-198.95 192.80,-198.40"/>
    </edge>
    <edge id=":gneJ8_9" function="internal">
        <lane id=":gneJ8_9_0" index="0" speed="6.51" length="9.03" shape="192.80,-201.60 195.25,-201.95 197.00,-203.00 198.05,-204.75 198.40,-207.20"/>
    </edge>
    <edge id=":gneJ8_10" function="internal">
        <lane id=":gneJ8_10_0" index="0" speed="13.89" length="14.40" shape="192.80,-201.60 207.20,-201.60"/>
    </edge>
    <edge id=":gneJ8_11" function="internal">
        <lane id=":gneJ8_11_0" index="0" speed="8.00" length="14.19" shape="192.80,-201.60 196.65,-201.05 199.40,-199.40 201.05,-196.65 201.60,-192.80"/>
    </edge>
    <edge id=":gneJ9_0" function="internal">
        <lane id=":gneJ9_0_0" index="0" speed="6.51" length="9.03" shape="98.40,-192.80 98.05,-195.25 97.00,-197.00 95.25,-198.05 92.80,-198.40"/>
    </edge>
    <edge id=":gneJ9_1" function="internal">
        <lane id=":gneJ9_1_0" index="0" speed="13.89" length="14.40" shape="98.40,-192.80 98.40,-207.20"/>
    </edge>
    <edge id=":gneJ9_2" function="internal">