<?xml version="1.0" encoding="UTF-8"?>

<!-- generated on 03/24/22 14:01:38 by Eclipse SUMO duarouter Version 1.4.0
<configuration xmlns:xsi="http://www.w3.org/2001/XMLSchema-instance" xsi:noNamespaceSchemaLocation="http://sumo.dlr.de/xsd/duarouterConfiguration.xsd">

    <input>
        <net-file value="fixedtime.net.xml"/>
        <route-files value="trips.trips.xml"/>
    </input>

    <output>
        <output-file value="roo.rou.xml"/>
        <alternatives-output value="roo.rou.alt.xml"/>
    </output>

    <time>
        <begin value="0.0"/>
        <end value="600.0"/>
    </time>

    <report>
        <no-warnings value="true"/>
        <ignore-errors value="true"/>
        <no-step-log value="true"/>
    </report>

</configuration>
-->

<routes xmlns:xsi="http://www.w3.org/2001/XMLSchema-instance" xsi:noNamespaceSchemaLocation="http://sumo.dlr.de/xsd/routes_file.xsd">
    <vehicle id="0" depart="0.00">
        <route edges="-1 5 -8"/>
    </vehicle>
    <vehicle id="1" depart="0.00">
        <route edges="4 5 -9"/>
    </vehicle>
    <vehicle id="2" depart="0.00">
        <route edges="0 -3"/>
    </vehicle>
    <vehicle id="4" depart="0.00">
        <route edges="0 -1 5"/>
    </vehicle>
    <vehicle id="5" depart="1.00">
        <route edges="4 5 -8"/>
    </vehicle>
    <vehicle id="6" depart="1.00">
        <route edges="5 -9"/>
    </vehicle>
    <vehicle id="8" depart="2.00">
        <route edges="-1 -4"/>
    </vehicle>
    <vehicle id="9" depart="2.00">
        <route edges="7 -5 -4"/>
    </vehicle>
    <vehicle id="10" depart="2.00">
        <route edges="7 -5 1 -2"/>
    </vehicle>
    <vehicle id="13" depart="3.00">
        <route edges="4 5 -8"/>
    </vehicle>
    <vehicle id="15" depart="4.00">
        <route edges="1 -2"/>
    </vehicle>
    <vehicle id="16" depart="4.00">
        <route edges="0 -1 5 -7"/>
    </vehicle>
    <vehicle id="21" depart="6.00">
        <route edges="9 -5 -4"/>
    </vehicle>
    <vehicle id="25" depart="7.00">
        <route edges="7 -9"/>
    </vehicle>
    <vehicle id="26" depart="8.00">
        <route edges="-5 1 -2"/>
    </vehicle>
    <vehicle id="27" depart="8.00">
        <route edges="4 5 -8"/>
    </vehicle>
    <vehicle id="28" depart="8.00">
        <route edges="-1 5"/>
    </vehicle>
    <vehicle id="29" depart="9.00">
        <route edges="1"/>
    </vehicle>
    <vehicle id="30" depart="9.00">
        <route edges="0 -1 -6"/>
    </vehicle>
    <vehicle id="31" depart="9.00">
        <route edges="4 5 -9"/>
    </vehicle>
    <vehicle id="32" depart="9.00">
        <route edges="6 1"/>
    </vehicle>
    <vehicle id="33" depart="10.00">
        <route edges="4 1 -3"/>
    </vehicle>
    <vehicle id="35" depart="10.00">
        <route edges="6 5"/>
    </vehicle>
    <vehicle id="36" depart="10.00">
        <route edges="2 -1 -4"/>
    </vehicle>
    <vehicle id="37" depart="10.00">
        <route edges="3 -1 -4"/>
    </vehicle>
    <vehicle id="38" depart="11.00">
        <route edges="9 -5"/>
    </vehicle>
    <vehicle id="39" depart="11.00">
        <route edges="-1"/>
    </vehicle>
    <vehicle id="40" depart="11.00">
        <route edges="2 -1 -6"/>
    </vehicle>
    <vehicle id="41" depart="11.00">
        <route edges="6 -4"/>
    </vehicle>
    <vehicle id="44" depart="12.00">
        <route edges="7 -5 1 -3"/>
    </vehicle>
    <vehicle id="46" depart="13.00">
        <route edges="3 -1 -4"/>
    </vehicle>
    <vehicle id="47" depart="13.00">
        <route edges="2 -1 -4"/>
    </vehicle>
    <vehicle id="50" depart="14.00">
        <route edges="2 -1 5"/>
    </vehicle>
    <vehicle id="54" depart="15.00">
        <route edges="1"/>
    </vehicle>
    <vehicle id="55" depart="16.00">
        <route edges="-5 -6"/>
    </vehicle>
    <vehicle id="56" depart="16.00">
        <route edges="2 -1 5"/>
    </vehicle>
    <vehicle id="58" depart="17.00">
        <route edges="3 -1 5 -8"/>
    </vehicle>
    <vehicle id="59" depart="17.00">
        <route edges="4 5"/>
    </vehicle>
    <vehicle id="60" depart="17.00">
        <route edges="-1 5 -8"/>
    </vehicle>
    <vehicle id="61" depart="18.00">
        <route edges="-1 -6"/>
    </vehicle>
    <vehicle id="62" depart="18.00">
        <route edges="9 -5 -4"/>
    </vehicle>
    <vehicle id="63" depart="19.00">
        <route edges="5 -8"/>
    </vehicle>
    <vehicle id="64" depart="19.00">
        <route edges="6 5 -9"/>
    </vehicle>
    <vehicle id="66" depart="19.00">
        <route edges="8 -5 1"/>
    </vehicle>
    <vehicle id="67" depart="19.00">
        <route edges="4 5 -9"/>
    </vehicle>
    <vehicle id="68" depart="20.00">
        <route edges="0 -1 -6"/>
    </vehicle>
    <vehicle id="70" depart="20.00">
        <route edges="4 5 -8"/>
    </vehicle>
    <vehicle id="72" depart="21.00">
        <route edges="-1 5 -8"/>
    </vehicle>
    <vehicle id="73" depart="21.00">
        <route edges="2 -1 -6"/>
    </vehicle>
    <vehicle id="74" depart="22.00">
        <route edges="2 -1 5"/>
    </vehicle>
    <vehicle id="75" depart="22.00">
        <route edges="-1 5 -8"/>
    </vehicle>
    <vehicle id="76" depart="22.00">
        <route edges="7 -9"/>
    </vehicle>
    <vehicle id="78" depart="23.00">
        <route edges="8 -7"/>
    </vehicle>
    <vehicle id="80" depart="23.00">
        <route edges="-5"/>
    </vehicle>
    <vehicle id="84" depart="24.00">
        <route edges="7 -5 1"/>
    </vehicle>
    <vehicle id="86" depart="25.00">
        <route edges="9 -5 1 -3"/>
    </vehicle>
    <vehicle id="88" depart="25.00">
        <route edges="1 -0"/>
    </vehicle>
    <vehicle id="89" depart="25.00">
        <route edges="8 -5 1 -0"/>
    </vehicle>
    <vehicle id="91" depart="26.00">
        <route edges="-1 5 -7"/>
    </vehicle>
    <vehicle id="93" depart="27.00">
        <route edges="8 -5 1 -3"/>
    </vehicle>
    <vehicle id="94" depart="27.00">
        <route edges="5 -7"/>
    </vehicle>
    <vehicle id="95" depart="27.00">
        <route edges="4 5"/>
    </vehicle>
    <vehicle id="96" depart="27.00">
        <route edges="-1 5"/>
    </vehicle>
    <vehicle id="98" depart="28.00">
        <route edges="7 -8"/>
    </vehicle>
    <vehicle id="100" depart="29.00">
        <route edges="-5 -6"/>
    </vehicle>
    <vehicle id="102" depart="29.00">
        <route edges="0 -1 -4"/>
    </vehicle>
    <vehicle id="103" depart="30.00">
        <route edges="-5"/>
    </vehicle>
    <vehicle id="105" depart="31.00">
        <route edges="1"/>
    </vehicle>
    <vehicle id="106" depart="31.00">
        <route edges="-1 -4"/>
    </vehicle>
    <vehicle id="107" depart="32.00">
        <route edges="0 -3"/>
    </vehicle>
    <vehicle id="109" depart="32.00">
        <route edges="2 -1 5 -9"/>
    </vehicle>
    <vehicle id="110" depart="32.00">
        <route edges="8 -5 -4"/>
    </vehicle>
    <vehicle id="111" depart="33.00">
        <route edges="0 -1 -4"/>
    </vehicle>
    <vehicle id="113" depart="33.00">
        <route edges="7 -9"/>
    </vehicle>
    <vehicle id="114" depart="34.00">
        <route edges="6 5 -8"/>
    </vehicle>
    <vehicle id="115" depart="34.00">
        <route edges="7 -5 1 -2"/>
    </vehicle>
    <vehicle id="118" depart="35.00">
        <route edges="-1"/>
    </vehicle>
    <vehicle id="119" depart="35.00">
        <route edges="-5 1 -2"/>
    </vehicle>
    <vehicle id="120" depart="35.00">
        <route edges="5 -7"/>
    </vehicle>
    <vehicle id="122" depart="35.00">
        <route edges="7 -9"/>
    </vehicle>
    <vehicle id="123" depart="36.00">
        <route edges="6 -4"/>
    </vehicle>
    <vehicle id="124" depart="36.00">
        <route edges="3 -1 5 -9"/>
    </vehicle>
    <vehicle id="125" depart="36.00">
        <route edges="4 5"/>
    </vehicle>
    <vehicle id="126" depart="37.00">
        <route edges="6 1 -3"/>
    </vehicle>
    <vehicle id="129" depart="37.00">
        <route edges="8 -5 1 -2"/>
    </vehicle>
    <vehicle id="130" depart="38.00">
        <route edges="3 -1 5"/>
    </vehicle>
    <vehicle id="132" depart="39.00">
        <route edges="2 -3"/>
    </vehicle>
    <vehicle id="134" depart="40.00">
        <route edges="7 -5 1 -2"/>
    </vehicle>
    <vehicle id="135" depart="40.00">
        <route edges="8 -5 1 -0"/>
    </vehicle>
    <vehicle id="140" depart="41.00">
        <route edges="5 -9"/>
    </vehicle>
    <vehicle id="141" depart="41.00">
        <route edges="8 -7"/>
    </vehicle>
    <vehicle id="142" depart="41.00">
        <route edges="8 -9"/>
    </vehicle>
    <vehicle id="143" depart="42.00">
        <route edges="2 -1 5"/>
    </vehicle>
    <vehicle id="144" depart="42.00">
        <route edges="5"/>
    </vehicle>
    <vehicle id="147" depart="43.00">
        <route edges="6 1 -3"/>
    </vehicle>
    <vehicle id="148" depart="43.00">
        <route edges="9 -5 1"/>
    </vehicle>
    <vehicle id="151" depart="44.00">
        <route edges="2 -1 -4"/>
    </vehicle>
    <vehicle id="157" depart="46.00">
        <route edges="3 -1 5 -7"/>
    </vehicle>
    <vehicle id="158" depart="47.00">
        <route edges="-1 5 -8"/>
    </vehicle>
    <vehicle id="159" depart="47.00">
        <route edges="2 -0"/>
    </vehicle>
    <vehicle id="160" depart="48.00">
        <route edges="-1"/>
    </vehicle>
    <vehicle id="161" depart="48.00">
        <route edges="-5 -4"/>
    </vehicle>
    <vehicle id="162" depart="48.00">
        <route edges="1 -2"/>
    </vehicle>
    <vehicle id="163" depart="48.00">
        <route edges="-1 5 -9"/>
    </vehicle>
    <vehicle id="165" depart="49.00">
        <route edges="0 -1"/>
    </vehicle>
    <vehicle id="166" depart="49.00">
        <route edges="9 -8"/>
    </vehicle>
    <vehicle id="167" depart="50.00">
        <route edges="2 -3"/>
    </vehicle>
    <vehicle id="170" depart="51.00">
        <route edges="1 -2"/>
    </vehicle>
    <vehicle id="171" depart="51.00">
        <route edges="6 1"/>
    </vehicle>
    <vehicle id="172" depart="52.00">
        <route edges="4 1 -0"/>
    </vehicle>
    <vehicle id="173" depart="52.00">
        <route edges="1 -2"/>
    </vehicle>
    <vehicle id="175" depart="52.00">
        <route edges="9 -5 1"/>
    </vehicle>
    <vehicle id="176" depart="53.00">
        <route edges="4 1 -3"/>
    </vehicle>
    <vehicle id="179" depart="53.00">
        <route edges="8 -5 1"/>
    </vehicle>
    <vehicle id="180" depart="53.00">
        <route edges="2 -1 5 -9"/>
    </vehicle>
    <vehicle id="181" depart="54.00">
        <route edges="8 -5 -6"/>
    </vehicle>
    <vehicle id="185" depart="54.00">
        <route edges="7 -5 -6"/>
    </vehicle>
    <vehicle id="190" depart="56.00">
        <route edges="2 -1 5 -9"/>
    </vehicle>
    <vehicle id="191" depart="56.00">
        <route edges="2 -1 -4"/>
    </vehicle>
    <vehicle id="192" depart="57.00">
        <route edges="-5 -4"/>
    </vehicle>
    <vehicle id="193" depart="57.00">
        <route edges="-5 -4"/>
    </vehicle>
    <vehicle id="195" depart="57.00">
        <route edges="0 -1"/>
    </vehicle>
    <vehicle id="197" depart="58.00">
        <route edges="4 5 -9"/>
    </vehicle>
    <vehicle id="198" depart="58.00">
        <route edges="7 -5 -4"/>
    </vehicle>
    <vehicle id="199" depart="58.00">
        <route edges="6 5 -8"/>
    </vehicle>
    <vehicle id="200" depart="59.00">
        <route edges="1 -3"/>
    </vehicle>
    <vehicle id="202" depart="59.00">
        <route edges="6 5 -7"/>
    </vehicle>
    <vehicle id="203" depart="59.00">
        <route edges="3 -1 5 -8"/>
    </vehicle>
    <vehicle id="205" depart="60.00">
        <route edges="7 -5 1 -2"/>
    </vehicle>
    <vehicle id="206" depart="60.00">
        <route edges="7 -9"/>
    </vehicle>
    <vehicle id="208" depart="61.00">
        <route edges="-5 1"/>
    </vehicle>
    <vehicle id="210" depart="62.00">
        <route edges="8 -5 1 -2"/>
    </vehicle>
    <vehicle id="211" depart="63.00">
        <route edges="4 1 -3"/>
    </vehicle>
    <vehicle id="214" depart="63.00">
        <route edges="6 -4"/>
    </vehicle>
    <vehicle id="216" depart="64.00">
        <route edges="7 -5 -6"/>
    </vehicle>
    <vehicle id="218" depart="65.00">
        <route edges="2 -3"/>
    </vehicle>
    <vehicle id="219" depart="66.00">
        <route edges="3 -0"/>
    </vehicle>
    <vehicle id="221" depart="67.00">
        <route edges="4 1 -3"/>
    </vehicle>
    <vehicle id="222" depart="67.00">
        <route edges="8 -7"/>
    </vehicle>
    <vehicle id="226" depart="68.00">
        <route edges="7 -5 1 -3"/>
    </vehicle>
    <vehicle id="227" depart="68.00">
        <route edges="8 -7"/>
    </vehicle>
    <vehicle id="231" depart="70.00">
        <route edges="8 -5 -6"/>
    </vehicle>
    <vehicle id="232" depart="71.00">
        <route edges="8 -5 -6"/>
    </vehicle>
    <vehicle id="233" depart="71.00">
        <route edges="8 -9"/>
    </vehicle>
    <vehicle id="234" depart="71.00">
        <route edges="8 -5 1"/>
    </vehicle>
    <vehicle id="235" depart="72.00">
        <route edges="-5"/>
    </vehicle>
    <vehicle id="236" depart="72.00">
        <route edges="-1 -6"/>
    </vehicle>
    <vehicle id="237" depart="73.00">
        <route edges="3 -0"/>
    </vehicle>
    <vehicle id="238" depart="73.00">
        <route edges="4 5 -8"/>
    </vehicle>
    <vehicle id="240" depart="73.00">
        <route edges="2 -1 -4"/>
    </vehicle>
    <vehicle id="241" depart="74.00">
        <route edges="0 -1 5 -9"/>
    </vehicle>
    <vehicle id="243" depart="74.00">
        <route edges="8 -7"/>
    </vehicle>
    <vehicle id="244" depart="75.00">
        <route edges="1 -0"/>
    </vehicle>
    <vehicle id="245" depart="75.00">
        <route edges="2 -1 5 -8"/>
    </vehicle>
    <vehicle id="246" depart="75.00">
        <route edges="6 1 -0"/>
    </vehicle>
    <vehicle id="247" depart="76.00">
        <route edges="-1 -6"/>
    </vehicle>
    <vehicle id="248" depart="76.00">
        <route edges="7 -5"/>
    </vehicle>
    <vehicle id="249" depart="77.00">
        <route edges="9 -5"/>
    </vehicle>
    <vehicle id="250" depart="78.00">
        <route edges="9 -5 1 -3"/>
    </vehicle>
    <vehicle id="251" depart="78.00">
        <route edges="5 -9"/>
    </vehicle>
    <vehicle id="253" depart="78.00">
        <route edges="5 -9"/>
    </vehicle>
    <vehicle id="254" depart="78.00">
        <route edges="-5 1 -2"/>
    </vehicle>
    <vehicle id="256" depart="79.00">
        <route edges="8 -5 1"/>
    </vehicle>
    <vehicle id="257" depart="79.00">
        <route edges="7 -5 -6"/>
    </vehicle>
    <vehicle id="259" depart="80.00">
        <route edges="6 5 -7"/>
    </vehicle>
    <vehicle id="261" depart="80.00">
        <route edges="8 -5 -4"/>
    </vehicle>
    <vehicle id="263" depart="82.00">
        <route edges="2 -1 5 -7"/>
    </vehicle>
    <vehicle id="266" depart="83.00">
        <route edges="9 -5 -6"/>
    </vehicle>
    <vehicle id="267" depart="83.00">
        <route edges="2 -0"/>
    </vehicle>
    <vehicle id="268" depart="84.00">
        <route edges="4 1"/>
    </vehicle>
    <vehicle id="269" depart="84.00">
        <route edges="2 -0"/>
    </vehicle>
    <vehicle id="271" depart="85.00">
        <route edges="3 -1 -4"/>
    </vehicle>
    <vehicle id="272" depart="85.00">
        <route edges="4 5 -9"/>
    </vehicle>
    <vehicle id="273" depart="85.00">
        <route edges="2 -1 5 -9"/>
    </vehicle>
    <vehicle id="274" depart="85.00">
        <route edges="9 -7"/>
    </vehicle>
    <vehicle id="275" depart="86.00">
        <route edges="7 -5 -6"/>
    </vehicle>
    <vehicle id="276" depart="86.00">
        <route edges="4 -6"/>
    </vehicle>
    <vehicle id="277" depart="86.00">
        <route edges="7 -5 1 -0"/>
    </vehicle>
    <vehicle id="278" depart="86.00">
        <route edges="0 -1"/>
    </vehicle>
    <vehicle id="279" depart="87.00">
        <route edges="1"/>
    </vehicle>
    <vehicle id="280" depart="87.00">
        <route edges="7 -8"/>
    </vehicle>
    <vehicle id="281" depart="87.00">
        <route edges="0 -1 5 -9"/>
    </vehicle>
    <vehicle id="282" depart="87.00">
        <route edges="6 -4"/>
    </vehicle>
    <vehicle id="284" depart="88.00">
        <route edges="4 5 -9"/>
    </vehicle>
    <vehicle id="286" depart="88.00">
        <route edges="2 -1 5 -9"/>
    </vehicle>
    <vehicle id="289" depart="89.00">
        <route edges="7 -5"/>
    </vehicle>
    <vehicle id="290" depart="89.00">
        <route edges="9 -8"/>
    </vehicle>
    <vehicle id="292" depart="90.00">
        <route edges="0 -1 -4"/>
    </vehicle>
    <vehicle id="294" depart="91.00">
        <route edges="6 -4"/>
    </vehicle>
    <vehicle id="296" depart="91.00">
        <route edges="4 5 -7"/>
    </vehicle>
    <vehicle id="297" depart="92.00">
        <route edges="7 -5 1 -0"/>
    </vehicle>
    <vehicle id="300" depart="93.00">
        <route edges="-1"/>
    </vehicle>
    <vehicle id="302" depart="93.00">
        <route edges="-5 -4"/>
    </vehicle>
    <vehicle id="303" depart="93.00">
        <route edges="0 -1 -6"/>
    </vehicle>
    <vehicle id="304" depart="94.00">
        <route edges="9 -5"/>
    </vehicle>
    <vehicle id="305" depart="94.00">
        <route edges="6 1"/>
    </vehicle>
    <vehicle id="306" depart="94.00">
        <route edges="2 -1 -6"/>
    </vehicle>
    <vehicle id="307" depart="94.00">
        <route edges="9 -7"/>
    </vehicle>
    <vehicle id="309" depart="95.00">
        <route edges="3 -1 5"/>
    </vehicle>
    <vehicle id="312" depart="96.00">
        <route edges="0 -1"/>
    </vehicle>
    <vehicle id="314" depart="97.00">
        <route edges="3 -0"/>
    </vehicle>
    <vehicle id="315" depart="97.00">
        <route edges="0 -2"/>
    </vehicle>
    <vehicle id="318" depart="98.00">
        <route edges="3 -1 -6"/>
    </vehicle>
    <vehicle id="319" depart="98.00">
        <route edges="7 -5 1 -0"/>
    </vehicle>
    <vehicle id="320" depart="98.00">
        <route edges="2 -1 5 -8"/>
    </vehicle>
    <vehicle id="321" depart="98.00">
        <route edges="4 5"/>
    </vehicle>
    <vehicle id="322" depart="99.00">
        <route edges="0 -1 -6"/>
    </vehicle>
    <vehicle id="323" depart="99.00">
        <route edges="8 -5 1 -2"/>
    </vehicle>
    <vehicle id="325" depart="100.00">
        <route edges="9 -5 1"/>
    </vehicle>
    <vehicle id="327" depart="100.00">
        <route edges="-1 -4"/>
    </vehicle>
    <vehicle id="328" depart="100.00">
        <route edges="9 -5 1"/>
    </vehicle>
    <vehicle id="330" depart="101.00">
        <route edges="8 -7"/>
    </vehicle>
    <vehicle id="331" depart="101.00">
        <route edges="3 -1 5 -9"/>
    </vehicle>
    <vehicle id="334" depart="102.00">
        <route edges="9 -5 1 -3"/>
    </vehicle>
    <vehicle id="336" depart="102.00">
        <route edges="8 -5 1 -0"/>
    </vehicle>
    <vehicle id="337" depart="103.00">
        <route edges="3 -1 5 -7"/>
    </vehicle>
    <vehicle id="338" depart="103.00">
        <route edges="7 -5 1 -2"/>
    </vehicle>
    <vehicle id="340" depart="104.00">
        <route edges="9 -5"/>
    </vehicle>
    <vehicle id="342" depart="104.00">
        <route edges="8 -9"/>
    </vehicle>
    <vehicle id="343" depart="105.00">
        <route edges="2 -1 5 -9"/>
    </vehicle>
    <vehicle id="344" depart="105.00">
        <route edges="3 -1 5 -9"/>
    </vehicle>
    <vehicle id="346" depart="106.00">
        <route edges="8 -5 1 -3"/>
    </vehicle>
    <vehicle id="349" depart="106.00">
        <route edges="6 5 -9"/>
    </vehicle>
    <vehicle id="351" depart="107.00">
        <route edges="3 -0"/>
    </vehicle>
    <vehicle id="352" depart="107.00">
        <route edges="2 -1 5"/>
    </vehicle>
    <vehicle id="353" depart="107.00">
        <route edges="4 5 -9"/>
    </vehicle>
    <vehicle id="356" depart="108.00">
        <route edges="6 5 -7"/>
    </vehicle>
    <vehicle id="357" depart="108.00">
        <route edges="8 -5 1 -2"/>
    </vehicle>
    <vehicle id="359" depart="109.00">
        <route edges="2 -1"/>
    </vehicle>
    <vehicle id="360" depart="109.00">
        <route edges="9 -7"/>
    </vehicle>
    <vehicle id="361" depart="110.00">
        <route edges="2 -1"/>
    </vehicle>
    <vehicle id="362" depart="110.00">
        <route edges="8 -5 1"/>
    </vehicle>
    <vehicle id="363" depart="110.00">
        <route edges="0 -1 -4"/>
    </vehicle>
    <vehicle id="366" depart="111.00">
        <route edges="2 -3"/>
    </vehicle>
    <vehicle id="367" depart="111.00">
        <route edges="5 -9"/>
    </vehicle>
    <vehicle id="368" depart="112.00">
        <route edges="8 -5 -4"/>
    </vehicle>
    <vehicle id="369" depart="112.00">
        <route edges="3 -1 -4"/>
    </vehicle>
    <vehicle id="371" depart="112.00">
        <route edges="4 1 -3"/>
    </vehicle>
    <vehicle id="372" depart="113.00">
        <route edges="4 5"/>
    </vehicle>
    <vehicle id="373" depart="113.00">
        <route edges="3 -1"/>
    </vehicle>
    <vehicle id="374" depart="113.00">
        <route edges="5 -9"/>
    </vehicle>
    <vehicle id="375" depart="113.00">
        <route edges="3 -2"/>
    </vehicle>
    <vehicle id="376" depart="114.00">
        <route edges="9 -5 1 -2"/>
    </vehicle>
    <vehicle id="377" depart="114.00">
        <route edges="0 -2"/>
    </vehicle>
    <vehicle id="378" depart="114.00">
        <route edges="2 -1 5 -8"/>
    </vehicle>
    <vehicle id="379" depart="115.00">
        <route edges="7 -5"/>
    </vehicle>
    <vehicle id="380" depart="115.00">
        <route edges="8 -5"/>
    </vehicle>
    <vehicle id="381" depart="115.00">
        <route edges="6 5 -7"/>
    </vehicle>
    <vehicle id="382" depart="115.00">
        <route edges="6 -4"/>
    </vehicle>
    <vehicle id="383" depart="116.00">
        <route edges="8 -5 1"/>
    </vehicle>
    <vehicle id="384" depart="116.00">
        <route edges="6 5"/>
    </vehicle>
    <vehicle id="386" depart="117.00">
        <route edges="8 -5 1"/>
    </vehicle>
    <vehicle id="389" depart="118.00">
        <route edges="-5 -4"/>
    </vehicle>
    <vehicle id="391" depart="118.00">
        <route edges="2 -1 5 -8"/>
    </vehicle>
    <vehicle id="392" depart="119.00">
        <route edges="3 -1 5 -8"/>
    </vehicle>
    <vehicle id="393" depart="119.00">
        <route edges="0 -1 5 -9"/>
    </vehicle>
    <vehicle id="394" depart="120.00">
        <route edges="3 -1 5"/>
    </vehicle>
    <vehicle id="395" depart="120.00">
        <route edges="0 -1 5 -7"/>
    </vehicle>
    <vehicle id="396" depart="121.00">
        <route edges="5 -8"/>
    </vehicle>
    <vehicle id="400" depart="122.00">
        <route edges="-1 5 -8"/>
    </vehicle>
    <vehicle id="402" depart="122.00">
        <route edges="6 -4"/>
    </vehicle>
    <vehicle id="405" depart="123.00">
        <route edges="2 -0"/>
    </vehicle>
    <vehicle id="407" depart="124.00">
        <route edges="-5 1 -2"/>
    </vehicle>
    <vehicle id="408" depart="124.00">
        <route edges="6 5 -7"/>
    </vehicle>
    <vehicle id="409" depart="124.00">
        <route edges="3 -1 5"/>
    </vehicle>
    <vehicle id="410" depart="125.00">
        <route edges="3 -1 5"/>
    </vehicle>
    <vehicle id="411" depart="125.00">
        <route edges="-5 1 -2"/>
    </vehicle>
    <vehicle id="413" depart="125.00">
        <route edges="3 -1 5"/>
    </vehicle>
    <vehicle id="414" depart="126.00">
        <route edges="8 -5 1 -3"/>
    </vehicle>
    <vehicle id="415" depart="126.00">
        <route edges="2 -1 5 -8"/>
    </vehicle>
    <vehicle id="416" depart="126.00">
        <route edges="8 -5 1"/>
    </vehicle>
    <vehicle id="417" depart="126.00">
        <route edges="6 5 -9"/>
    </vehicle>
    <vehicle id="418" depart="127.00">
        <route edges="4 1"/>
    </vehicle>
    <vehicle id="419" depart="127.00">
        <route edges="0 -1"/>
    </vehicle>
    <vehicle id="420" depart="127.00">
        <route edges="8 -7"/>
    </vehicle>
    <vehicle id="421" depart="128.00">
        <route edges="8 -5 1 -3"/>
    </vehicle>
    <vehicle id="422" depart="129.00">
        <route edges="4 5 -8"/>
    </vehicle>
    <vehicle id="423" depart="129.00">
        <route edges="6 1 -0"/>
    </vehicle>
    <vehicle id="424" depart="129.00">
        <route edges="4 1 -3"/>
    </vehicle>
    <vehicle id="425" depart="129.00">
        <route edges="-1"/>
    </vehicle>
    <vehicle id="428" depart="130.00">
        <route edges="7 -9"/>
    </vehicle>
    <vehicle id="429" depart="130.00">
        <route edges="3 -1 5"/>
    </vehicle>
    <vehicle id="430" depart="130.00">
        <route edges="-5 -4"/>
    </vehicle>
    <vehicle id="431" depart="131.00">
        <route edges="4 5"/>
    </vehicle>
    <vehicle id="432" depart="131.00">
        <route edges="4 1 -2"/>
    </vehicle>
    <vehicle id="433" depart="131.00">
        <route edges="-1 5 -9"/>
    </vehicle>
    <vehicle id="434" depart="132.00">
        <route edges="9 -5"/>
    </vehicle>
    <vehicle id="435" depart="132.00">
        <route edges="0 -2"/>
    </vehicle>
    <vehicle id="439" depart="133.00">
        <route edges="-1 5 -7"/>
    </vehicle>
    <vehicle id="440" depart="133.00">
        <route edges="1"/>
    </vehicle>
    <vehicle id="441" depart="133.00">
        <route edges="-1 5 -9"/>
    </vehicle>
    <vehicle id="442" depart="133.00">
        <route edges="6 1 -3"/>
    </vehicle>
    <vehicle id="443" depart="134.00">
        <route edges="9 -5 1 -2"/>
    </vehicle>
    <vehicle id="444" depart="134.00">
        <route edges="9 -8"/>
    </vehicle>
    <vehicle id="445" depart="134.00">
        <route edges="1 -0"/>
    </vehicle>
    <vehicle id="446" depart="134.00">
        <route edges="9 -7"/>
    </vehicle>
    <vehicle id="447" depart="134.00">
        <route edges="5 -9"/>
    </vehicle>
    <vehicle id="448" depart="135.00">
        <route edges="7 -5 -4"/>
    </vehicle>
    <vehicle id="449" depart="135.00">
        <route edges="2 -1 -4"/>
    </vehicle>
    <vehicle id="450" depart="135.00">
        <route edges="5"/>
    </vehicle>
    <vehicle id="451" depart="135.00">
        <route edges="1"/>
    </vehicle>
    <vehicle id="452" depart="136.00">
        <route edges="-1"/>
    </vehicle>
    <vehicle id="453" depart="136.00">
        <route edges="9 -5 1 -0"/>
    </vehicle>
    <vehicle id="456" depart="137.00">
        <route edges="-5"/>
    </vehicle>
    <vehicle id="458" depart="138.00">
        <route edges="0 -1 5 -9"/>
    </vehicle>
    <vehicle id="460" depart="139.00">
        <route edges="-5 -4"/>
    </vehicle>
    <vehicle id="462" depart="140.00">
        <route edges="0 -1 -6"/>
    </vehicle>
    <vehicle id="463" depart="140.00">
        <route edges="4 1 -0"/>
    </vehicle>
    <vehicle id="464" depart="141.00">
        <route edges="3 -1 5"/>
    </vehicle>
    <vehicle id="465" depart="141.00">
        <route edges="4 -6"/>
    </vehicle>
    <vehicle id="467" depart="142.00">
        <route edges="2 -3"/>
    </vehicle>
    <vehicle id="468" depart="142.00">
        <route edges="4 5 -8"/>
    </vehicle>
    <vehicle id="469" depart="142.00">
        <route edges="3 -2"/>
    </vehicle>
    <vehicle id="472" depart="143.00">
        <route edges="4 1"/>
    </vehicle>
    <vehicle id="473" depart="143.00">
        <route edges="0 -3"/>
    </vehicle>
    <vehicle id="475" depart="144.00">
        <route edges="7 -9"/>
    </vehicle>
    <vehicle id="476" depart="144.00">
        <route edges="8 -5 1 -3"/>
    </vehicle>
    <vehicle id="477" depart="145.00">
        <route edges="6 5 -8"/>
    </vehicle>
    <vehicle id="478" depart="145.00">
        <route edges="1"/>
    </vehicle>
    <vehicle id="479" depart="145.00">
        <route edges="8 -5"/>
    </vehicle>
    <vehicle id="481" depart="146.00">
        <route edges="7 -8"/>
    </vehicle>
    <vehicle id="483" depart="146.00">
        <route edges="1 -3"/>
    </vehicle>
    <vehicle id="484" depart="146.00">
        <route edges="4 5 -9"/>
    </vehicle>
    <vehicle id="485" depart="147.00">
        <route edges="8 -5 1 -2"/>
    </vehicle>
    <vehicle id="486" depart="147.00">
        <route edges="1 -3"/>
    </vehicle>
    <vehicle id="487" depart="147.00">
        <route edges="1 -3"/>
    </vehicle>
    <vehicle id="488" depart="148.00">
        <route edges="3 -1 5 -9"/>
    </vehicle>
    <vehicle id="489" depart="148.00">
        <route edges="4 5 -8"/>
    </vehicle>
    <vehicle id="490" depart="148.00">
        <route edges="9 -5 1 -0"/>
    </vehicle>
    <vehicle id="491" depart="149.00">
        <route edges="3 -2"/>
    </vehicle>
    <vehicle id="492" depart="149.00">
        <route edges="4 1 -2"/>
    </vehicle>
    <vehicle id="493" depart="150.00">
        <route edges="4 1"/>
    </vehicle>
    <vehicle id="497" depart="151.00">
        <route edges="7 -5 -6"/>
    </vehicle>
    <vehicle id="498" depart="151.00">
        <route edges="4 5 -9"/>
    </vehicle>
    <vehicle id="500" depart="152.00">
        <route edges="1 -2"/>
    </vehicle>
    <vehicle id="501" depart="152.00">
        <route edges="4 5 -9"/>
    </vehicle>
    <vehicle id="502" depart="152.00">
        <route edges="3 -1 5 -9"/>
    </vehicle>
    <vehicle id="503" depart="153.00">
        <route edges="2 -1 5"/>
    </vehicle>
    <vehicle id="505" depart="153.00">
        <route edges="-5"/>
    </vehicle>
    <vehicle id="506" depart="153.00">
        <route edges="6 5 -8"/>
    </vehicle>
    <vehicle id="510" depart="154.00">
        <route edges="6 1 -2"/>
    </vehicle>
    <vehicle id="511" depart="155.00">
        <route edges="8 -5 1"/>
    </vehicle>
    <vehicle id="513" depart="155.00">
        <route edges="8 -5 1 -0"/>
    </vehicle>