<?xml version="1.0" encoding="UTF-8"?>

<!-- generated on 03/24/22 18:05:03 by Eclipse SUMO duarouter Version 1.4.0
<configuration xmlns:xsi="http://www.w3.org/2001/XMLSchema-instance" xsi:noNamespaceSchemaLocation="http://sumo.dlr.de/xsd/duarouterConfiguration.xsd">

    <input>
        <net-file value="fixedtime.net.xml"/>
        <route-files value="trips.trips.xml"/>
    </input>

    <output>
        <output-file value="roo.rou.xml"/>
        <alternatives-output value="roo.rou.alt.xml"/>
    </output>

    <time>
        <begin value="0.0"/>
        <end value="900.0"/>
    </time>

    <report>
        <no-warnings value="true"/>
        <ignore-errors value="true"/>
        <no-step-log value="true"/>
    </report>

</configuration>
-->

<routes xmlns:xsi="http://www.w3.org/2001/XMLSchema-instance" xsi:noNamespaceSchemaLocation="http://sumo.dlr.de/xsd/routes_file.xsd">
    <vehicle id="1" depart="0.00">
        <route edges="2 -1 -6"/>
    </vehicle>
    <vehicle id="2" depart="1.00">
        <route edges="3 -1 -6"/>
    </vehicle>
    <vehicle id="3" depart="1.00">
        <route edges="8 -5 -6"/>
    </vehicle>
    <vehicle id="4" depart="1.00">
        <route edges="-5 1"/>
    </vehicle>
    <vehicle id="6" depart="2.00">
        <route edges="2 -1 5 -9"/>
    </vehicle>
    <vehicle id="8" depart="3.00">
        <route edges="8 -5 1 -3"/>
    </vehicle>
    <vehicle id="11" depart="4.00">
        <route edges="0 -1 5 -7"/>
    </vehicle>
    <vehicle id="12" depart="4.00">
        <route edges="6 1"/>
    </vehicle>
    <vehicle id="13" depart="4.00">
        <route edges="3 -1 5 -9"/>
    </vehicle>
    <vehicle id="14" depart="4.00">
        <route edges="2 -0"/>
    </vehicle>
    <vehicle id="15" depart="5.00">
        <route edges="8 -5 1 -3"/>
    </vehicle>
    <vehicle id="16" depart="5.00">
        <route edges="2 -1 -4"/>
    </vehicle>
    <vehicle id="17" depart="5.00">
        <route edges="7 -5 1 -0"/>
    </vehicle>
    <vehicle id="20" depart="6.00">
        <route edges="9 -5 1 -2"/>
    </vehicle>
    <vehicle id="22" depart="6.00">
        <route edges="4 5"/>
    </vehicle>
    <vehicle id="23" depart="7.00">
        <route edges="7 -5 1 -0"/>
    </vehicle>
    <vehicle id="25" depart="9.00">
        <route edges="-1 -4"/>
    </vehicle>
    <vehicle id="26" depart="9.00">
        <route edges="0 -2"/>
    </vehicle>
    <vehicle id="27" depart="10.00">
        <route edges="5 -9"/>
    </vehicle>
    <vehicle id="28" depart="10.00">
        <route edges="0 -1 -4"/>
    </vehicle>
    <vehicle id="29" depart="11.00">
        <route edges="0 -1"/>
    </vehicle>
    <vehicle id="31" depart="12.00">
        <route edges="7 -8"/>
    </vehicle>
    <vehicle id="32" depart="12.00">
        <route edges="7 -5 1 -0"/>
    </vehicle>
    <vehicle id="33" depart="12.00">
        <route edges="6 5"/>
    </vehicle>
    <vehicle id="34" depart="12.00">
        <route edges="9 -5 1"/>
    </vehicle>
    <vehicle id="35" depart="13.00">
        <route edges="2 -1 -4"/>
    </vehicle>
    <vehicle id="37" depart="13.00">
        <route edges="-1 -4"/>
    </vehicle>
    <vehicle id="38" depart="13.00">
        <route edges="8 -5 1 -2"/>
    </vehicle>
    <vehicle id="43" depart="15.00">
        <route edges="4 5 -9"/>
    </vehicle>
    <vehicle id="44" depart="15.00">
        <route edges="-1 -4"/>
    </vehicle>
    <vehicle id="45" depart="16.00">
        <route edges="4 -6"/>
    </vehicle>
    <vehicle id="49" depart="16.00">
        <route edges="-5 -6"/>
    </vehicle>
    <vehicle id="50" depart="17.00">
        <route edges="6 5 -9"/>
    </vehicle>
    <vehicle id="51" depart="17.00">
        <route edges="7 -5 1"/>
    </vehicle>
    <vehicle id="52" depart="17.00">
        <route edges="6 -4"/>
    </vehicle>
    <vehicle id="54" depart="18.00">
        <route edges="0 -1 -6"/>
    </vehicle>
    <vehicle id="55" depart="18.00">
        <route edges="7 -5 1 -3"/>
    </vehicle>
    <vehicle id="58" depart="20.00">
        <route edges="-1 5"/>
    </vehicle>
    <vehicle id="59" depart="20.00">
        <route edges="1"/>
    </vehicle>
    <vehicle id="61" depart="20.00">
        <route edges="5 -8"/>
    </vehicle>
    <vehicle id="62" depart="21.00">
        <route edges="7 -8"/>
    </vehicle>
    <vehicle id="64" depart="21.00">
        <route edges="-5 -6"/>
    </vehicle>
    <vehicle id="65" depart="22.00">
        <route edges="2 -1 -6"/>
    </vehicle>
    <vehicle id="66" depart="22.00">
        <route edges="-1"/>
    </vehicle>
    <vehicle id="67" depart="22.00">
        <route edges="0 -1 -4"/>
    </vehicle>
    <vehicle id="68" depart="22.00">
        <route edges="8 -5 1 -2"/>
    </vehicle>
    <vehicle id="69" depart="22.00">
        <route edges="0 -3"/>
    </vehicle>
    <vehicle id="70" depart="23.00">
        <route edges="5"/>
    </vehicle>
    <vehicle id="72" depart="23.00">
        <route edges="3 -2"/>
    </vehicle>
    <vehicle id="73" depart="23.00">
        <route edges="0 -2"/>
    </vehicle>
    <vehicle id="74" depart="24.00">
        <route edges="9 -7"/>
    </vehicle>
    <vehicle id="75" depart="24.00">
        <route edges="4 1"/>
    </vehicle>
    <vehicle id="76" depart="24.00">
        <route edges="9 -5 1 -3"/>
    </vehicle>
    <vehicle id="77" depart="24.00">
        <route edges="1 -0"/>
    </vehicle>
    <vehicle id="79" depart="25.00">
        <route edges="8 -5 1 -3"/>
    </vehicle>
    <vehicle id="80" depart="26.00">
        <route edges="3 -2"/>
    </vehicle>
    <vehicle id="82" depart="26.00">
        <route edges="8 -5 -4"/>
    </vehicle>
    <vehicle id="83" depart="26.00">
        <route edges="6 5 -9"/>
    </vehicle>
    <vehicle id="85" depart="27.00">
        <route edges="-1 5 -9"/>
    </vehicle>
    <vehicle id="86" depart="28.00">
        <route edges="-5 1 -3"/>
    </vehicle>
    <vehicle id="88" depart="28.00">
        <route edges="-5"/>
    </vehicle>
    <vehicle id="89" depart="28.00">
        <route edges="7 -5"/>
    </vehicle>
    <vehicle id="90" depart="29.00">
        <route edges="1 -2"/>
    </vehicle>
    <vehicle id="91" depart="30.00">
        <route edges="9 -5 1 -3"/>
    </vehicle>
    <vehicle id="92" depart="30.00">
        <route edges="2 -1 -4"/>
    </vehicle>
    <vehicle id="94" depart="30.00">
        <route edges="6 1 -0"/>
    </vehicle>
    <vehicle id="95" depart="31.00">
        <route edges="9 -5 -4"/>
    </vehicle>
    <vehicle id="96" depart="31.00">
        <route edges="3 -1 5 -7"/>
    </vehicle>
    <vehicle id="98" depart="32.00">
        <route edges="0 -1 5 -7"/>
    </vehicle>
    <vehicle id="99" depart="32.00">
        <route edges="-1 5 -8"/>
    </vehicle>
    <vehicle id="101" depart="33.00">
        <route edges="0 -1"/>
    </vehicle>
    <vehicle id="102" depart="33.00">
        <route edges="6 5 -9"/>
    </vehicle>
    <vehicle id="103" depart="33.00">
        <route edges="-1"/>
    </vehicle>
    <vehicle id="104" depart="34.00">
        <route edges="2 -0"/>
    </vehicle>
    <vehicle id="106" depart="34.00">
        <route edges="-1 -4"/>
    </vehicle>
    <vehicle id="107" depart="35.00">
        <route edges="8 -5 1 -0"/>
    </vehicle>
    <vehicle id="108" depart="35.00">
        <route edges="6 5"/>
    </vehicle>
    <vehicle id="111" depart="36.00">
        <route edges="2 -1 5 -9"/>
    </vehicle>
    <vehicle id="113" depart="37.00">
        <route edges="-1"/>
    </vehicle>
    <vehicle id="116" depart="37.00">
        <route edges="2 -1 5"/>
    </vehicle>
    <vehicle id="117" depart="38.00">
        <route edges="8 -5 1 -0"/>
    </vehicle>
    <vehicle id="118" depart="38.00">
        <route edges="2 -1 5 -9"/>
    </vehicle>
    <vehicle id="120" depart="38.00">
        <route edges="0 -1 -4"/>
    </vehicle>
    <vehicle id="121" depart="38.00">
        <route edges="5 -8"/>
    </vehicle>
    <vehicle id="124" depart="39.00">
        <route edges="2 -3"/>
    </vehicle>
    <vehicle id="125" depart="39.00">
        <route edges="0 -3"/>
    </vehicle>
    <vehicle id="126" depart="40.00">
        <route edges="6 1"/>
    </vehicle>
    <vehicle id="130" depart="41.00">
        <route edges="4 1 -2"/>
    </vehicle>
    <vehicle id="131" depart="41.00">
        <route edges="8 -5 -4"/>
    </vehicle>
    <vehicle id="132" depart="41.00">
        <route edges="8 -5 -6"/>
    </vehicle>
    <vehicle id="135" depart="43.00">
        <route edges="-1 -4"/>
    </vehicle>
    <vehicle id="136" depart="44.00">
        <route edges="3 -1 5 -8"/>
    </vehicle>
    <vehicle id="137" depart="45.00">
        <route edges="0 -1"/>
    </vehicle>
    <vehicle id="138" depart="45.00">
        <route edges="0 -1 5 -9"/>
    </vehicle>
    <vehicle id="139" depart="45.00">
        <route edges="2 -1"/>
    </vehicle>
    <vehicle id="142" depart="46.00">
        <route edges="8 -5 1 -2"/>
    </vehicle>
    <vehicle id="143" depart="46.00">
        <route edges="-1 -6"/>
    </vehicle>
    <vehicle id="144" depart="47.00">
        <route edges="-5 -6"/>
    </vehicle>
    <vehicle id="146" depart="47.00">
        <route edges="4 1"/>
    </vehicle>
    <vehicle id="148" depart="47.00">
        <route edges="2 -0"/>
    </vehicle>
    <vehicle id="150" depart="48.00">
        <route edges="-5 1"/>
    </vehicle>
    <vehicle id="152" depart="48.00">
        <route edges="9 -5 1 -3"/>
    </vehicle>
    <vehicle id="153" depart="48.00">
        <route edges="2 -1 5 -9"/>
    </vehicle>
    <vehicle id="156" depart="49.00">
        <route edges="9 -5 -4"/>
    </vehicle>
    <vehicle id="157" depart="50.00">
        <route edges="4 1 -3"/>
    </vehicle>
    <vehicle id="158" depart="50.00">
        <route edges="-1 5 -8"/>
    </vehicle>
    <vehicle id="160" depart="50.00">
        <route edges="-5 1 -2"/>
    </vehicle>
    <vehicle id="162" depart="51.00">
        <route edges="-5 1 -2"/>
    </vehicle>
    <vehicle id="163" depart="51.00">
        <route edges="9 -5 1 -3"/>
    </vehicle>
    <vehicle id="164" depart="52.00">
        <route edges="6 5"/>
    </vehicle>
    <vehicle id="165" depart="52.00">
        <route edges="4 1 -0"/>
    </vehicle>
    <vehicle id="166" depart="52.00">
        <route edges="9 -5 -6"/>
    </vehicle>
    <vehicle id="167" depart="52.00">
        <route edges="-5 -6"/>
    </vehicle>
    <vehicle id="169" depart="53.00">
        <route edges="-5 -6"/>
    </vehicle>
    <vehicle id="170" depart="53.00">
        <route edges="7 -5 -4"/>
    </vehicle>
    <vehicle id="171" depart="53.00">
        <route edges="-5 1 -0"/>
    </vehicle>
    <vehicle id="173" depart="54.00">
        <route edges="-5 1"/>
    </vehicle>
    <vehicle id="174" depart="54.00">
        <route edges="6 5 -7"/>
    </vehicle>
    <vehicle id="175" depart="54.00">
        <route edges="9 -5 -4"/>
    </vehicle>
    <vehicle id="176" depart="54.00">
        <route edges="-1"/>
    </vehicle>
    <vehicle id="177" depart="54.00">
        <route edges="-5 -4"/>
    </vehicle>
    <vehicle id="179" depart="55.00">
        <route edges="-5 1"/>
    </vehicle>
    <vehicle id="181" depart="55.00">
        <route edges="0 -1"/>
    </vehicle>
    <vehicle id="182" depart="56.00">
        <route edges="-1 -6"/>
    </vehicle>
    <vehicle id="183" depart="56.00">
        <route edges="3 -2"/>
    </vehicle>
    <vehicle id="184" depart="56.00">
        <route edges="9 -8"/>
    </vehicle>
    <vehicle id="185" depart="57.00">
        <route edges="7 -8"/>
    </vehicle>
    <vehicle id="189" depart="58.00">
        <route edges="3 -1 5 -9"/>
    </vehicle>
    <vehicle id="190" depart="60.00">
        <route edges="6 5 -8"/>
    </vehicle>
    <vehicle id="192" depart="60.00">
        <route edges="0 -1 5"/>
    </vehicle>
    <vehicle id="193" depart="61.00">
        <route edges="9 -7"/>
    </vehicle>
    <vehicle id="194" depart="61.00">
        <route edges="0 -1 5 -7"/>
    </vehicle>
    <vehicle id="197" depart="62.00">
        <route edges="1 -2"/>
    </vehicle>
    <vehicle id="199" depart="62.00">
        <route edges="0 -2"/>
    </vehicle>
    <vehicle id="200" depart="63.00">
        <route edges="7 -5"/>
    </vehicle>
    <vehicle id="201" depart="63.00">
        <route edges="9 -5 1 -2"/>
    </vehicle>
    <vehicle id="202" depart="63.00">
        <route edges="6 5 -7"/>
    </vehicle>
    <vehicle id="205" depart="64.00">
        <route edges="8 -5 -6"/>
    </vehicle>
    <vehicle id="206" depart="64.00">
        <route edges="8 -5 -6"/>
    </vehicle>
    <vehicle id="208" depart="65.00">
        <route edges="4 5 -9"/>
    </vehicle>
    <vehicle id="210" depart="66.00">
        <route edges="2 -1 -6"/>
    </vehicle>
    <vehicle id="211" depart="66.00">
        <route edges="-5"/>
    </vehicle>
    <vehicle id="212" depart="67.00">
        <route edges="6 -4"/>
    </vehicle>
    <vehicle id="213" depart="67.00">
        <route edges="4 1"/>
    </vehicle>
    <vehicle id="214" depart="67.00">
        <route edges="3 -2"/>
    </vehicle>
    <vehicle id="215" depart="68.00">
        <route edges="4 1 -0"/>
    </vehicle>
    <vehicle id="216" depart="68.00">
        <route edges="5 -9"/>
    </vehicle>
    <vehicle id="217" depart="68.00">
        <route edges="7 -5 1 -0"/>
    </vehicle>
    <vehicle id="220" depart="69.00">
        <route edges="8 -5 -4"/>
    </vehicle>
    <vehicle id="221" depart="70.00">
        <route edges="5 -7"/>
    </vehicle>
    <vehicle id="223" depart="70.00">
        <route edges="6 5"/>
    </vehicle>
    <vehicle id="225" depart="71.00">
        <route edges="-1"/>
    </vehicle>
    <vehicle id="226" depart="71.00">
        <route edges="8 -5 -4"/>
    </vehicle>
    <vehicle id="228" depart="72.00">
        <route edges="3 -1 5 -9"/>
    </vehicle>
    <vehicle id="230" depart="73.00">
        <route edges="7 -5 1 -0"/>
    </vehicle>
    <vehicle id="232" depart="73.00">
        <route edges="6 1 -2"/>
    </vehicle>
    <vehicle id="233" depart="73.00">
        <route edges="3 -1"/>
    </vehicle>
    <vehicle id="236" depart="74.00">
        <route edges="6 1"/>
    </vehicle>
    <vehicle id="237" depart="74.00">
        <route edges="-1"/>
    </vehicle>
    <vehicle id="238" depart="74.00">
        <route edges="5 -9"/>
    </vehicle>
    <vehicle id="239" depart="75.00">
        <route edges="3 -1 -4"/>
    </vehicle>
    <vehicle id="241" depart="75.00">
        <route edges="7 -5 1 -3"/>
    </vehicle>
    <vehicle id="242" depart="75.00">
        <route edges="3 -1"/>
    </vehicle>
    <vehicle id="243" depart="75.00">
        <route edges="-5 1 -3"/>
    </vehicle>
    <vehicle id="245" depart="76.00">
        <route edges="4 5 -9"/>
    </vehicle>
    <vehicle id="246" depart="77.00">
        <route edges="6 1 -0"/>
    </vehicle>
    <vehicle id="248" depart="77.00">
        <route edges="8 -5 -4"/>
    </vehicle>
    <vehicle id="251" depart="78.00">
        <route edges="9 -5 1 -2"/>
    </vehicle>
    <vehicle id="254" depart="79.00">
        <route edges="7 -5 1"/>
    </vehicle>
    <vehicle id="255" depart="80.00">
        <route edges="6 1"/>
    </vehicle>
    <vehicle id="258" depart="80.00">
        <route edges="6 5 -7"/>
    </vehicle>
    <vehicle id="259" depart="81.00">
        <route edges="-1 -6"/>
    </vehicle>
    <vehicle id="260" depart="81.00">
        <route edges="3 -1 5"/>
    </vehicle>
    <vehicle id="263" depart="82.00">
        <route edges="2 -1 5 -8"/>
    </vehicle>
    <vehicle id="264" depart="83.00">
        <route edges="0 -1 5"/>
    </vehicle>
    <vehicle id="265" depart="83.00">
        <route edges="0 -1"/>
    </vehicle>
    <vehicle id="266" depart="83.00">
        <route edges="3 -1 5 -7"/>
    </vehicle>
    <vehicle id="267" depart="83.00">
        <route edges="-1 5"/>
    </vehicle>
    <vehicle id="268" depart="83.00">
        <route edges="3 -1 5"/>
    </vehicle>
    <vehicle id="269" depart="84.00">
        <route edges="3 -2"/>
    </vehicle>
    <vehicle id="270" depart="85.00">
        <route edges="7 -5 -4"/>
    </vehicle>
    <vehicle id="271" depart="85.00">
        <route edges="4 5 -9"/>
    </vehicle>
    <vehicle id="272" depart="85.00">
        <route edges="4 1 -2"/>
    </vehicle>
    <vehicle id="273" depart="85.00">
        <route edges="7 -5 1 -2"/>
    </vehicle>
    <vehicle id="276" depart="86.00">
        <route edges="5 -8"/>
    </vehicle>
    <vehicle id="277" depart="87.00">
        <route edges="4 5 -7"/>
    </vehicle>
    <vehicle id="280" depart="87.00">
        <route edges="7 -5 -4"/>
    </vehicle>
    <vehicle id="281" depart="87.00">
        <route edges="-1 5 -9"/>
    </vehicle>
    <vehicle id="282" depart="88.00">
        <route edges="5 -7"/>
    </vehicle>
    <vehicle id="283" depart="88.00">
        <route edges="9 -5 -6"/>
    </vehicle>
    <vehicle id="284" depart="88.00">
        <route edges="8 -5"/>
    </vehicle>
    <vehicle id="285" depart="88.00">
        <route edges="9 -5 1 -0"/>
    </vehicle>
    <vehicle id="286" depart="88.00">
        <route edges="7 -5"/>
    </vehicle>
    <vehicle id="288" depart="89.00">
        <route edges="5 -8"/>
    </vehicle>
    <vehicle id="291" depart="90.00">
        <route edges="8 -5"/>
    </vehicle>
    <vehicle id="294" depart="91.00">
        <route edges="0 -2"/>
    </vehicle>
    <vehicle id="295" depart="91.00">
        <route edges="2 -1 5 -9"/>
    </vehicle>
    <vehicle id="296" depart="92.00">
        <route edges="2 -0"/>
    </vehicle>
    <vehicle id="297" depart="92.00">
        <route edges="3 -1 5 -8"/>
    </vehicle>
    <vehicle id="300" depart="93.00">
        <route edges="9 -8"/>
    </vehicle>
    <vehicle id="303" depart="94.00">
        <route edges="6 5 -8"/>
    </vehicle>
    <vehicle id="305" depart="94.00">
        <route edges="-1"/>
    </vehicle>
    <vehicle id="306" depart="94.00">
        <route edges="4 5 -7"/>
    </vehicle>
    <vehicle id="308" depart="95.00">
        <route edges="9 -5 1 -2"/>
    </vehicle>
    <vehicle id="309" depart="95.00">
        <route edges="0 -1 -6"/>
    </vehicle>
    <vehicle id="311" depart="96.00">
        <route edges="8 -5 1"/>
    </vehicle>
    <vehicle id="313" depart="96.00">
        <route edges="7 -5 -4"/>
    </vehicle>
    <vehicle id="314" depart="97.00">
        <route edges="6 1 -2"/>
    </vehicle>
    <vehicle id="317" depart="98.00">
        <route edges="3 -1 5 -9"/>
    </vehicle>
    <vehicle id="318" depart="98.00">
        <route edges="-1 5 -9"/>
    </vehicle>
    <vehicle id="319" depart="99.00">
        <route edges="4 5 -7"/>
    </vehicle>
    <vehicle id="320" depart="99.00">
        <route edges="9 -5 1 -2"/>
    </vehicle>
    <vehicle id="321" depart="99.00">
        <route edges="9 -5"/>
    </vehicle>
    <vehicle id="322" depart="99.00">
        <route edges="7 -5 1 -0"/>
    </vehicle>
    <vehicle id="325" depart="100.00">
        <route edges="3 -1 5 -7"/>
    </vehicle>
    <vehicle id="328" depart="100.00">
        <route edges="7 -5 1 -3"/>
    </vehicle>
    <vehicle id="329" depart="101.00">
        <route edges="5 -9"/>
    </vehicle>
    <vehicle id="330" depart="102.00">
        <route edges="3 -0"/>
    </vehicle>
    <vehicle id="331" depart="102.00">
        <route edges="3 -2"/>
    </vehicle>
    <vehicle id="333" depart="102.00">
        <route edges="7 -5 1 -2"/>
    </vehicle>
    <vehicle id="334" depart="102.00">
        <route edges="2 -1 5"/>
    </vehicle>
    <vehicle id="336" depart="103.00">
        <route edges="5 -7"/>
    </vehicle>
    <vehicle id="337" depart="103.00">
        <route edges="3 -0"/>
    </vehicle>
    <vehicle id="338" depart="104.00">
        <route edges="4 1"/>
    </vehicle>
    <vehicle id="339" depart="104.00">
        <route edges="4 1 -2"/>
    </vehicle>
    <vehicle id="340" depart="105.00">
        <route edges="-5 1 -0"/>
    </vehicle>
    <vehicle id="342" depart="105.00">
        <route edges="0 -1 -6"/>
    </vehicle>
    <vehicle id="343" depart="105.00">
        <route edges="8 -7"/>
    </vehicle>
    <vehicle id="345" depart="107.00">
        <route edges="9 -5 1"/>
    </vehicle>
    <vehicle id="346" depart="107.00">
        <route edges="-1 5 -9"/>
    </vehicle>
    <vehicle id="348" depart="107.00">
        <route edges="4 1 -0"/>
    </vehicle>
    <vehicle id="350" depart="108.00">
        <route edges="9 -7"/>
    </vehicle>
    <vehicle id="351" depart="109.00">
        <route edges="-1"/>
    </vehicle>
    <vehicle id="352" depart="109.00">
        <route edges="3 -1 5"/>
    </vehicle>
    <vehicle id="353" depart="109.00">
        <route edges="8 -5 -6"/>
    </vehicle>
    <vehicle id="354" depart="109.00">
        <route edges="0 -1"/>
    </vehicle>
    <vehicle id="355" depart="109.00">
        <route edges="5 -8"/>
    </vehicle>
    <vehicle id="356" depart="110.00">
        <route edges="1 -0"/>
    </vehicle>
    <vehicle id="357" depart="110.00">
        <route edges="6 -4"/>
    </vehicle>
    <vehicle id="358" depart="111.00">
        <route edges="8 -5 -4"/>
    </vehicle>
    <vehicle id="363" depart="112.00">
        <route edges="0 -1"/>
    </vehicle>
    <vehicle id="365" depart="112.00">
        <route edges="4 1 -0"/>
    </vehicle>
    <vehicle id="366" depart="112.00">
        <route edges="5 -7"/>
    </vehicle>
    <vehicle id="368" depart="113.00">
        <route edges="9 -5 1 -3"/>
    </vehicle>
    <vehicle id="369" depart="113.00">
        <route edges="7 -5 1"/>
    </vehicle>
    <vehicle id="370" depart="113.00">
        <route edges="1 -2"/>
    </vehicle>
    <vehicle id="371" depart="114.00">
        <route edges="-1 5 -7"/>
    </vehicle>
    <vehicle id="372" depart="114.00">
        <route edges="8 -5 1"/>
    </vehicle>
    <vehicle id="373" depart="114.00">
        <route edges="6 1 -0"/>
    </vehicle>
    <vehicle id="376" depart="116.00">
        <route edges="0 -1 -4"/>
    </vehicle>
    <vehicle id="377" depart="116.00">
        <route edges="9 -5 1 -3"/>
    </vehicle>
    <vehicle id="378" depart="116.00">
        <route edges="5 -7"/>
    </vehicle>
    <vehicle id="379" depart="117.00">
        <route edges="7 -9"/>
    </vehicle>
    <vehicle id="380" depart="117.00">
        <route edges="2 -1 5 -8"/>
    </vehicle>
    <vehicle id="381" depart="117.00">
        <route edges="4 5"/>
    </vehicle>
    <vehicle id="382" depart="117.00">
        <route edges="2 -1"/>
    </vehicle>
    <vehicle id="387" depart="118.00">
        <route edges="2 -1 5 -8"/>
    </vehicle>
    <vehicle id="388" depart="118.00">
        <route edges="9 -5 1 -3"/>
    </vehicle>
    <vehicle id="389" depart="118.00">
        <route edges="8 -5 1 -0"/>
    </vehicle>
    <vehicle id="390" depart="119.00">
        <route edges="3 -1 5"/>
    </vehicle>
    <vehicle id="391" depart="119.00">
        <route edges="4 1 -2"/>
    </vehicle>
    <vehicle id="392" depart="119.00">
        <route edges="3 -1 5 -9"/>
    </vehicle>
    <vehicle id="394" depart="120.00">
        <route edges="2 -1 5 -9"/>
    </vehicle>
    <vehicle id="395" depart="120.00">
        <route edges="7 -5 1 -3"/>
    </vehicle>
    <vehicle id="396" depart="120.00">
        <route edges="0 -1 5 -9"/>
    </vehicle>
    <vehicle id="397" depart="120.00">
        <route edges="8 -7"/>
    </vehicle>
    <vehicle id="398" depart="121.00">
        <route edges="0 -1 5"/>
    </vehicle>
    <vehicle id="399" depart="121.00">
        <route edges="6 5 -8"/>
    </vehicle>
    <vehicle id="401" depart="122.00">
        <route edges="2 -1 5 -7"/>
    </vehicle>
    <vehicle id="402" depart="122.00">
        <route edges="8 -5 -6"/>
    </vehicle>
    <vehicle id="404" depart="123.00">
        <route edges="7 -5"/>
    </vehicle>
    <vehicle id="405" depart="123.00">
        <route edges="8 -5 1"/>
    </vehicle>
    <vehicle id="406" depart="124.00">
        <route edges="8 -5 1 -0"/>
    </vehicle>
    <vehicle id="407" depart="124.00">
        <route edges="-5 1 -3"/>
    </vehicle>
    <vehicle id="413" depart="126.00">
        <route edges="2 -1 -6"/>
    </vehicle>
    <vehicle id="416" depart="127.00">
        <route edges="1 -0"/>
    </vehicle>
    <vehicle id="417" depart="127.00">
        <route edges="8 -9"/>
    </vehicle>
    <vehicle id="418" depart="127.00">
        <route edges="9 -5 -6"/>
    </vehicle>
    <vehicle id="419" depart="128.00">
        <route edges="7 -9"/>
    </vehicle>
    <vehicle id="420" depart="128.00">
        <route edges="7 -5 -4"/>
    </vehicle>
    <vehicle id="421" depart="128.00">
        <route edges="-1 5 -7"/>
    </vehicle>
    <vehicle id="422" depart="128.00">
        <route edges="7 -9"/>
    </vehicle>
    <vehicle id="423" depart="129.00">
        <route edges="4 5"/>
    </vehicle>
    <vehicle id="424" depart="129.00">
        <route edges="2 -1 5 -8"/>
    </vehicle>
    <vehicle id="427" depart="130.00">
        <route edges="2 -1 -4"/>
    </vehicle>
    <vehicle id="428" depart="130.00">
        <route edges="4 1 -0"/>
    </vehicle>
    <vehicle id="431" depart="131.00">
        <route edges="7 -5 1"/>
    </vehicle>
    <vehicle id="433" depart="131.00">
        <route edges="5"/>
    </vehicle>
    <vehicle id="435" depart="132.00">
        <route edges="-5 1 -3"/>
    </vehicle>
    <vehicle id="437" depart="132.00">
        <route edges="5 -8"/>
    </vehicle>
    <vehicle id="440" depart="133.00">
        <route edges="8 -5 -4"/>
    </vehicle>
    <vehicle id="441" depart="135.00">
        <route edges="-5 1 -2"/>
    </vehicle>
    <vehicle id="442" depart="135.00">
        <route edges="4 1 -0"/>
    </vehicle>
    <vehicle id="443" depart="135.00">
        <route edges="6 1"/>
    </vehicle>
    <vehicle id="445" depart="135.00">
        <route edges="-1 -4"/>
    </vehicle>
    <vehicle id="446" depart="136.00">
        <route edges="8 -5 1 -3"/>
    </vehicle>
    <vehicle id="447" depart="136.00">
        <route edges="1 -3"/>
    </vehicle>
    <vehicle id="450" depart="137.00">
        <route edges="6 5 -8"/>
    </vehicle>
    <vehicle id="451" depart="137.00">
        <route edges="-5 1 -2"/>
    </vehicle>
    <vehicle id="452" depart="137.00">
        <route edges="5"/>
    </vehicle>
    <vehicle id="456" depart="138.00">
        <route edges="1 -2"/>
    </vehicle>
    <vehicle id="457" depart="139.00">
        <route edges="7 -5 1"/>
    </vehicle>
    <vehicle id="458" depart="139.00">
        <route edges="2 -0"/>
    </vehicle>
    <vehicle id="459" depart="139.00">
        <route edges="4 1 -0"/>
    </vehicle>
    <vehicle id="460" depart="140.00">
        <route edges="2 -1 5 -9"/>
    </vehicle>
    <vehicle id="461" depart="140.00">
        <route edges="5 -8"/>
    </vehicle>
    <vehicle id="462" depart="140.00">
        <route edges="-5 -6"/>
    </vehicle>
    <vehicle id="464" depart="141.00">
        <route edges="2 -3"/>
    </vehicle>
    <vehicle id="469" depart="142.00">
        <route edges="-5 -6"/>
    </vehicle>
    <vehicle id="471" depart="143.00">
        <route edges="3 -2"/>
    </vehicle>
    <vehicle id="472" depart="143.00">
        <route edges="6 5 -7"/>
    </vehicle>
    <vehicle id="474" depart="143.00">
        <route edges="6 1"/>
    </vehicle>
    <vehicle id="477" depart="144.00">
        <route edges="4 1 -3"/>
    </vehicle>
    <vehicle id="478" depart="144.00">
        <route edges="6 -4"/>
    </vehicle>
    <vehicle id="479" depart="144.00">
        <route edges="7 -5 -6"/>
    </vehicle>
    <vehicle id="480" depart="145.00">
        <route edges="3 -1 5 -8"/>
    </vehicle>
    <vehicle id="481" depart="145.00">
        <route edges="9 -5 1 -2"/>
    </vehicle>
    <vehicle id="482" depart="145.00">
        <route edges="-5 1 -2"/>
    </vehicle>
    <vehicle id="485" depart="146.00">
        <route edges="5 -9"/>
    </vehicle>
    <vehicle id="486" depart="146.00">
        <route edges="-1 5 -7"/>
    </vehicle>
    <vehicle id="487" depart="146.00">
        <route edges="6 1 -0"/>
    </vehicle>
    <vehicle id="488" depart="147.00">
        <route edges="9 -5 1 -3"/>
    </vehicle>
    <vehicle id="492" depart="148.00">
        <route edges="2 -0"/>
    </vehicle>
    <vehicle id="493" depart="149.00">
        <route edges="2 -0"/>
    </vehicle>
    <vehicle id="495" depart="149.00">
        <route edges="9 -5 -4"/>
    </vehicle>
    <vehicle id="496" depart="149.00">
        <route edges="8 -5 1 -3"/>
    </vehicle>
    <vehicle id="497" depart="150.00">
        <route edges="6 5 -8"/>
    </vehicle>
    <vehicle id="498" depart="150.00">
        <route edges="8 -5 1 -0"/>
    </vehicle>
    <vehicle id="499" depart="150.00">
        <route edges="9 -5 1 -3"/>
    </vehicle>
    <vehicle id="500" depart="150.00">
        <route edges="7 -8"/>
    </vehicle>
    <vehicle id="502" depart="151.00">
        <route edges="3 -1 -4"/>
    </vehicle>
    <vehicle id="505" depart="152.00">
        <route edges="-1 -6"/>
    </vehicle>
    <vehicle id="506" depart="152.00">
        <route edges="6 1 -3"/>
    </vehicle>
    <vehicle id="509" depart="153.00">
        <route edges="-5 1 -0"/>
    </vehicle>
    <vehicle id="512" depart="153.00">
        <route edges="1"/>
    </vehicle>
    <vehicle id="515" depart="155.00">
        <route edges="9 -5 1 -0"/>
    </vehicle>
    <vehicle id="519" depart="156.00">
        <route edges="6 1 -0"/>
    </vehicle>
    <vehicle id="520" depart="157.00">
        <route edges="8 -5 -6"/>
    </vehicle>
    <vehicle id="521" depart="157.00">
        <route edges="6 -4"/>
    </vehicle>
    <vehicle id="523" depart="157.00">
        <route edges="-1 5"/>
    </vehicle>
    <vehicle id="524" depart="158.00">
        <route edges="-5"/>
    </vehicle>
    <vehicle id="527" depart="158.00">
        <route edges="2 -1 5 -9"/>
    </vehicle>
    <vehicle id="530" depart="159.00">