<?xml version="1.0" encoding="UTF-8"?>
<!-- generated on 2022-03-24 14:01:38.686222 by randomTrips.py v1_4_0+0000-d7c9afb42e
  options: -b 0 -e 600 -p 0.3 <doubleminus>route-file roo.rou.xml <doubleminus>binomial 5 -n fixedtime.net.xml
-->
<routes xmlns:xsi="http://www.w3.org/2001/XMLSchema-instance" xsi:noNamespaceSchemaLocation="http://sumo.dlr.de/xsd/routes_file.xsd">
    <trip id="0" depart="0.00" from="-1" to="-8"/>
    <trip id="1" depart="0.00" from="4" to="-9"/>
    <trip id="2" depart="0.00" from="0" to="-3"/>
    <trip id="3" depart="0.00" from="5" to="-5"/>
    <trip id="4" depart="0.00" from="0" to="5"/>
    <trip id="5" depart="1.00" from="4" to="-8"/>
    <trip id="6" depart="1.00" from="5" to="-9"/>
    <trip id="7" depart="1.00" from="5" to="-6"/>
    <trip id="8" depart="2.00" from="-1" to="-4"/>
    <trip id="9" depart="2.00" from="7" to="-4"/>
    <trip id="10" depart="2.00" from="7" to="-2"/>
    <trip id="11" depart="2.00" from="6" to="-5"/>
    <trip id="12" depart="3.00" from="2" to="1"/>
    <trip id="13" depart="3.00" from="4" to="-8"/>
    <trip id="14" depart="3.00" from="5" to="-4"/>
    <trip id="15" depart="4.00" from="1" to="-2"/>
    <trip id="16" depart="4.00" from="0" to="-7"/>
    <trip id="17" depart="5.00" from="6" to="-5"/>
    <trip id="18" depart="6.00" from="5" to="-4"/>
    <trip id="19" depart="6.00" from="9" to="-9"/>
    <trip id="20" depart="6.00" from="9" to="5"/>
    <trip id="21" depart="6.00" from="9" to="-4"/>
    <trip id="22" depart="7.00" from="-1" to="-0"/>
    <trip id="23" depart="7.00" from="7" to="-1"/>
    <trip id="24" depart="7.00" from="6" to="-5"/>
    <trip id="25" depart="7.00" from="7" to="-9"/>
    <trip id="26" depart="8.00" from="-5" to="-2"/>
    <trip id="27" depart="8.00" from="4" to="-8"/>
    <trip id="28" depart="8.00" from="-1" to="5"/>
    <trip id="29" depart="9.00" from="1" to="1"/>
    <trip id="30" depart="9.00" from="0" to="-6"/>
    <trip id="31" depart="9.00" from="4" to="-9"/>
    <trip id="32" depart="9.00" from="6" to="1"/>
    <trip id="33" depart="10.00" from="4" to="-3"/>
    <trip id="34" depart="10.00" from="8" to="5"/>
    <trip id="35" depart="10.00" from="6" to="5"/>
    <trip id="36" depart="10.00" from="2" to="-4"/>
    <trip id="37" depart="10.00" from="3" to="-4"/>
    <trip id="38" depart="11.00" from="9" to="-5"/>
    <trip id="39" depart="11.00" from="-1" to="-1"/>
    <trip id="40" depart="11.00" from="2" to="-6"/>
    <trip id="41" depart="11.00" from="6" to="-4"/>
    <trip id="42" depart="12.00" from="0" to="-5"/>
    <trip id="43" depart="12.00" from="6" to="-1"/>
    <trip id="44" depart="12.00" from="7" to="-3"/>
    <trip id="45" depart="12.00" from="6" to="-1"/>
    <trip id="46" depart="13.00" from="3" to="-4"/>
    <trip id="47" depart="13.00" from="2" to="-4"/>
    <trip id="48" depart="13.00" from="5" to="-4"/>
    <trip id="49" depart="14.00" from="8" to="5"/>
    <trip id="50" depart="14.00" from="2" to="5"/>
    <trip id="51" depart="15.00" from="3" to="-5"/>
    <trip id="52" depart="15.00" from="8" to="5"/>
    <trip id="53" depart="15.00" from="5" to="-4"/>
    <trip id="54" depart="15.00" from="1" to="1"/>
    <trip id="55" depart="16.00" from="-5" to="-6"/>
    <trip id="56" depart="16.00" from="2" to="5"/>
    <trip id="57" depart="16.00" from="5" to="-0"/>
    <trip id="58" depart="17.00" from="3" to="-8"/>
    <trip id="59" depart="17.00" from="4" to="5"/>
    <trip id="60" depart="17.00" from="-1" to="-8"/>
    <trip id="61" depart="18.00" from="-1" to="-6"/>
    <trip id="62" depart="18.00" from="9" to="-4"/>
    <trip id="63" depart="19.00" from="5" to="-8"/>
    <trip id="64" depart="19.00" from="6" to="-9"/>
    <trip id="65" depart="19.00" from="1" to="-7"/>
    <trip id="66" depart="19.00" from="8" to="1"/>
    <trip id="67" depart="19.00" from="4" to="-9"/>
    <trip id="68" depart="20.00" from="0" to="-6"/>
    <trip id="69" depart="20.00" from="2" to="-2"/>
    <trip id="70" depart="20.00" from="4" to="-8"/>
    <trip id="71" depart="21.00" from="9" to="-9"/>
    <trip id="72" depart="21.00" from="-1" to="-8"/>
    <trip id="73" depart="21.00" from="2" to="-6"/>
    <trip id="74" depart="22.00" from="2" to="5"/>
    <trip id="75" depart="22.00" from="-1" to="-8"/>
    <trip id="76" depart="22.00" from="7" to="-9"/>
    <trip id="77" depart="22.00" from="1" to="-4"/>
    <trip id="78" depart="23.00" from="8" to="-7"/>
    <trip id="79" depart="23.00" from="5" to="-2"/>
    <trip id="80" depart="23.00" from="-5" to="-5"/>
    <trip id="81" depart="23.00" from="2" to="-2"/>
    <trip id="82" depart="23.00" from="1" to="-7"/>
    <trip id="83" depart="24.00" from="2" to="-2"/>
    <trip id="84" depart="24.00" from="7" to="1"/>
    <trip id="85" depart="24.00" from="1" to="-4"/>
    <trip id="86" depart="25.00" from="9" to="-3"/>
    <trip id="87" depart="25.00" from="0" to="-0"/>
    <trip id="88" depart="25.00" from="1" to="-0"/>
    <trip id="89" depart="25.00" from="8" to="-0"/>
    <trip id="90" depart="26.00" from="-5" to="5"/>
    <trip id="91" depart="26.00" from="-1" to="-7"/>
    <trip id="92" depart="26.00" from="5" to="-4"/>
    <trip id="93" depart="27.00" from="8" to="-3"/>
    <trip id="94" depart="27.00" from="5" to="-7"/>
    <trip id="95" depart="27.00" from="4" to="5"/>
    <trip id="96" depart="27.00" from="-1" to="5"/>
    <trip id="97" depart="28.00" from="9" to="-9"/>
    <trip id="98" depart="28.00" from="7" to="-8"/>
    <trip id="99" depart="28.00" from="6" to="-5"/>
    <trip id="100" depart="29.00" from="-5" to="-6"/>
    <trip id="101" depart="29.00" from="1" to="-5"/>
    <trip id="102" depart="29.00" from="0" to="-4"/>
    <trip id="103" depart="30.00" from="-5" to="-5"/>
    <trip id="104" depart="30.00" from="-1" to="-3"/>
    <trip id="105" depart="31.00" from="1" to="1"/>
    <trip id="106" depart="31.00" from="-1" to="-4"/>
    <trip id="107" depart="32.00" from="0" to="-3"/>
    <trip id="108" depart="32.00" from="-1" to="-5"/>
    <trip id="109" depart="32.00" from="2" to="-9"/>
    <trip id="110" depart="32.00" from="8" to="-4"/>
    <trip id="111" depart="33.00" from="0" to="-4"/>
    <trip id="112" depart="33.00" from="5" to="-2"/>
    <trip id="113" depart="33.00" from="7" to="-9"/>
    <trip id="114" depart="34.00" from="6" to="-8"/>
    <trip id="115" depart="34.00" from="7" to="-2"/>
    <trip id="116" depart="34.00" from="2" to="-2"/>
    <trip id="117" depart="34.00" from="3" to="1"/>
    <trip id="118" depart="35.00" from="-1" to="-1"/>
    <trip id="119" depart="35.00" from="-5" to="-2"/>
    <trip id="120" depart="35.00" from="5" to="-7"/>
    <trip id="121" depart="35.00" from="6" to="-6"/>
    <trip id="122" depart="35.00" from="7" to="-9"/>
    <trip id="123" depart="36.00" from="6" to="-4"/>
    <trip id="124" depart="36.00" from="3" to="-9"/>
    <trip id="125" depart="36.00" from="4" to="5"/>
    <trip id="126" depart="37.00" from="6" to="-3"/>
    <trip id="127" depart="37.00" from="8" to="5"/>
    <trip id="128" depart="37.00" from="5" to="-2"/>
    <trip id="129" depart="37.00" from="8" to="-2"/>
    <trip id="130" depart="38.00" from="3" to="5"/>
    <trip id="131" depart="38.00" from="9" to="5"/>
    <trip id="132" depart="39.00" from="2" to="-3"/>
    <trip id="133" depart="39.00" from="7" to="-1"/>
    <trip id="134" depart="40.00" from="7" to="-2"/>
    <trip id="135" depart="40.00" from="8" to="-0"/>
    <trip id="136" depart="40.00" from="5" to="1"/>
    <trip id="137" depart="40.00" from="0" to="1"/>
    <trip id="138" depart="40.00" from="-5" to="-1"/>
    <trip id="139" depart="41.00" from="5" to="-6"/>
    <trip id="140" depart="41.00" from="5" to="-9"/>
    <trip id="141" depart="41.00" from="8" to="-7"/>
    <trip id="142" depart="41.00" from="8" to="-9"/>
    <trip id="143" depart="42.00" from="2" to="5"/>
    <trip id="144" depart="42.00" from="5" to="5"/>
    <trip id="145" depart="42.00" from="2" to="1"/>
    <trip id="146" depart="43.00" from="7" to="-7"/>
    <trip id="147" depart="43.00" from="6" to="-3"/>
    <trip id="148" depart="43.00" from="9" to="1"/>
    <trip id="149" depart="43.00" from="-5" to="-9"/>
    <trip id="150" depart="44.00" from="4" to="-1"/>
    <trip id="151" depart="44.00" from="2" to="-4"/>
    <trip id="152" depart="45.00" from="6" to="-1"/>
    <trip id="153" depart="45.00" from="4" to="-1"/>
    <trip id="154" depart="45.00" from="-5" to="5"/>
    <trip id="155" depart="45.00" from="9" to="-1"/>
    <trip id="156" depart="45.00" from="9" to="-1"/>
    <trip id="157" depart="46.00" from="3" to="-7"/>
    <trip id="158" depart="47.00" from="-1" to="-8"/>
    <trip id="159" depart="47.00" from="2" to="-0"/>
    <trip id="160" depart="48.00" from="-1" to="-1"/>
    <trip id="161" depart="48.00" from="-5" to="-4"/>
    <trip id="162" depart="48.00" from="1" to="-2"/>
    <trip id="163" depart="48.00" from="-1" to="-9"/>
    <trip id="164" depart="49.00" from="9" to="-9"/>
    <trip id="165" depart="49.00" from="0" to="-1"/>
    <trip id="166" depart="49.00" from="9" to="-8"/>
    <trip id="167" depart="50.00" from="2" to="-3"/>
    <trip id="168" depart="50.00" from="7" to="5"/>
    <trip id="169" depart="50.00" from="5" to="1"/>
    <trip id="170" depart="51.00" from="1" to="-2"/>
    <trip id="171" depart="51.00" from="6" to="1"/>
    <trip id="172" depart="52.00" from="4" to="-0"/>
    <trip id="173" depart="52.00" from="1" to="-2"/>
    <trip id="174" depart="52.00" from="5" to="-2"/>
    <trip id="175" depart="52.00" from="9" to="1"/>
    <trip id="176" depart="53.00" from="4" to="-3"/>
    <trip id="177" depart="53.00" from="-1" to="-0"/>
    <trip id="178" depart="53.00" from="-1" to="1"/>
    <trip id="179" depart="53.00" from="8" to="1"/>
    <trip id="180" depart="53.00" from="2" to="-9"/>
    <trip id="181" depart="54.00" from="8" to="-6"/>
    <trip id="182" depart="54.00" from="8" to="-8"/>
    <trip id="183" depart="54.00" from="5" to="1"/>
    <trip id="184" depart="54.00" from="9" to="-9"/>
    <trip id="185" depart="54.00" from="7" to="-6"/>
    <trip id="186" depart="55.00" from="2" to="1"/>
    <trip id="187" depart="55.00" from="0" to="-0"/>
    <trip id="188" depart="55.00" from="9" to="-1"/>
    <trip id="189" depart="56.00" from="8" to="-1"/>
    <trip id="190" depart="56.00" from="2" to="-9"/>
    <trip id="191" depart="56.00" from="2" to="-4"/>
    <trip id="192" depart="57.00" from="-5" to="-4"/>
    <trip id="193" depart="57.00" from="-5" to="-4"/>
    <trip id="194" depart="57.00" from="9" to="5"/>
    <trip id="195" depart="57.00" from="0" to="-1"/>
    <trip id="196" depart="58.00" from="2" to="-5"/>
    <trip id="197" depart="58.00" from="4" to="-9"/>
    <trip id="198" depart="58.00" from="7" to="-4"/>
    <trip id="199" depart="58.00" from="6" to="-8"/>
    <trip id="200" depart="59.00" from="1" to="-3"/>
    <trip id="201" depart="59.00" from="1" to="-9"/>
    <trip id="202" depart="59.00" from="6" to="-7"/>
    <trip id="203" depart="59.00" from="3" to="-8"/>
    <trip id="204" depart="60.00" from="5" to="-1"/>
    <trip id="205" depart="60.00" from="7" to="-2"/>
    <trip id="206" depart="60.00" from="7" to="-9"/>
    <trip id="207" depart="60.00" from="1" to="-4"/>
    <trip id="208" depart="61.00" from="-5" to="1"/>
    <trip id="209" depart="62.00" from="2" to="-2"/>
    <trip id="210" depart="62.00" from="8" to="-2"/>
    <trip id="211" depart="63.00" from="4" to="-3"/>
    <trip id="212" depart="63.00" from="1" to="5"/>
    <trip id="213" depart="63.00" from="-1" to="-0"/>
    <trip id="214" depart="63.00" from="6" to="-4"/>
    <trip id="215" depart="64.00" from="8" to="-8"/>
    <trip id="216" depart="64.00" from="7" to="-6"/>
    <trip id="217" depart="65.00" from="-5" to="-8"/>
    <trip id="218" depart="65.00" from="2" to="-3"/>
    <trip id="219" depart="66.00" from="3" to="-0"/>
    <trip id="220" depart="66.00" from="5" to="1"/>
    <trip id="221" depart="67.00" from="4" to="-3"/>
    <trip id="222" depart="67.00" from="8" to="-7"/>
    <trip id="223" depart="67.00" from="-5" to="5"/>
    <trip id="224" depart="68.00" from="6" to="-5"/>
    <trip id="225" depart="68.00" from="7" to="5"/>
    <trip id="226" depart="68.00" from="7" to="-3"/>
    <trip id="227" depart="68.00" from="8" to="-7"/>
    <trip id="228" depart="69.00" from="6" to="-5"/>
    <trip id="229" depart="69.00" from="1" to="-9"/>
    <trip id="230" depart="69.00" from="8" to="5"/>
    <trip id="231" depart="70.00" from="8" to="-6"/>
    <trip id="232" depart="71.00" from="8" to="-6"/>
    <trip id="233" depart="71.00" from="8" to="-9"/>
    <trip id="234" depart="71.00" from="8" to="1"/>
    <trip id="235" depart="72.00" from="-5" to="-5"/>
    <trip id="236" depart="72.00" from="-1" to="-6"/>
    <trip id="237" depart="73.00" from="3" to="-0"/>
    <trip id="238" depart="73.00" from="4" to="-8"/>
    <trip id="239" depart="73.00" from="8" to="5"/>
    <trip id="240" depart="73.00" from="2" to="-4"/>
    <trip id="241" depart="74.00" from="0" to="-9"/>
    <trip id="242" depart="74.00" from="7" to="5"/>
    <trip id="243" depart="74.00" from="8" to="-7"/>
    <trip id="244" depart="75.00" from="1" to="-0"/>
    <trip id="245" depart="75.00" from="2" to="-8"/>
    <trip id="246" depart="75.00" from="6" to="-0"/>
    <trip id="247" depart="76.00" from="-1" to="-6"/>
    <trip id="248" depart="76.00" from="7" to="-5"/>
    <trip id="249" depart="77.00" from="9" to="-5"/>
    <trip id="250" depart="78.00" from="9" to="-3"/>
    <trip id="251" depart="78.00" from="5" to="-9"/>
    <trip id="252" depart="78.00" from="4" to="-5"/>
    <trip id="253" depart="78.00" from="5" to="-9"/>
    <trip id="254" depart="78.00" from="-5" to="-2"/>
    <trip id="255" depart="79.00" from="1" to="-4"/>
    <trip id="256" depart="79.00" from="8" to="1"/>
    <trip id="257" depart="79.00" from="7" to="-6"/>
    <trip id="258" depart="79.00" from="7" to="5"/>
    <trip id="259" depart="80.00" from="6" to="-7"/>
    <trip id="260" depart="80.00" from="9" to="-9"/>
    <trip id="261" depart="80.00" from="8" to="-4"/>
    <trip id="262" depart="81.00" from="7" to="-7"/>
    <trip id="263" depart="82.00" from="2" to="-7"/>
    <trip id="264" depart="82.00" from="8" to="5"/>
    <trip id="265" depart="82.00" from="-5" to="-7"/>
    <trip id="266" depart="83.00" from="9" to="-6"/>
    <trip id="267" depart="83.00" from="2" to="-0"/>
    <trip id="268" depart="84.00" from="4" to="1"/>
    <trip id="269" depart="84.00" from="2" to="-0"/>
    <trip id="270" depart="84.00" from="5" to="-6"/>
    <trip id="271" depart="85.00" from="3" to="-4"/>
    <trip id="272" depart="85.00" from="4" to="-9"/>
    <trip id="273" depart="85.00" from="2" to="-9"/>
    <trip id="274" depart="85.00" from="9" to="-7"/>
    <trip id="275" depart="86.00" from="7" to="-6"/>
    <trip id="276" depart="86.00" from="4" to="-6"/>
    <trip id="277" depart="86.00" from="7" to="-0"/>
    <trip id="278" depart="86.00" from="0" to="-1"/>
    <trip id="279" depart="87.00" from="1" to="1"/>
    <trip id="280" depart="87.00" from="7" to="-8"/>
    <trip id="281" depart="87.00" from="0" to="-9"/>
    <trip id="282" depart="87.00" from="6" to="-4"/>
    <trip id="283" depart="87.00" from="0" to="-5"/>
    <trip id="284" depart="88.00" from="4" to="-9"/>
    <trip id="285" depart="88.00" from="5" to="-4"/>
    <trip id="286" depart="88.00" from="2" to="-9"/>
    <trip id="287" depart="88.00" from="4" to="-4"/>
    <trip id="288" depart="89.00" from="0" to="-0"/>
    <trip id="289" depart="89.00" from="7" to="-5"/>
    <trip id="290" depart="89.00" from="9" to="-8"/>
    <trip id="291" depart="90.00" from="7" to="5"/>
    <trip id="292" depart="90.00" from="0" to="-4"/>
    <trip id="293" depart="90.00" from="1" to="-8"/>
    <trip id="294" depart="91.00" from="6" to="-4"/>
    <trip id="295" depart="91.00" from="3" to="1"/>
    <trip id="296" depart="91.00" from="4" to="-7"/>
    <trip id="297" depart="92.00" from="7" to="-0"/>
    <trip id="298" depart="92.00" from="7" to="5"/>
    <trip id="299" depart="92.00" from="-5" to="-9"/>
    <trip id="300" depart="93.00" from="-1" to="-1"/>
    <trip id="301" depart="93.00" from="3" to="-5"/>
    <trip id="302" depart="93.00" from="-5" to="-4"/>
    <trip id="303" depart="93.00" from="0" to="-6"/>
    <trip id="304" depart="94.00" from="9" to="-5"/>
    <trip id="305" depart="94.00" from="6" to="1"/>
    <trip id="306" depart="94.00" from="2" to="-6"/>
    <trip id="307" depart="94.00" from="9" to="-7"/>
    <trip id="308" depart="95.00" from="5" to="-6"/>
    <trip id="309" depart="95.00" from="3" to="5"/>
    <trip id="310" depart="95.00" from="-1" to="1"/>
    <trip id="311" depart="96.00" from="5" to="-5"/>
    <trip id="312" depart="96.00" from="0" to="-1"/>
    <trip id="313" depart="97.00" from="4" to="-1"/>
    <trip id="314" depart="97.00" from="3" to="-0"/>
    <trip id="315" depart="97.00" from="0" to="-2"/>
    <trip id="316" depart="97.00" from="2" to="-2"/>
    <trip id="317" depart="98.00" from="4" to="-1"/>
    <trip id="318" depart="98.00" from="3" to="-6"/>
    <trip id="319" depart="98.00" from="7" to="-0"/>
    <trip id="320" depart="98.00" from="2" to="-8"/>
    <trip id="321" depart="98.00" from="4" to="5"/>
    <trip id="322" depart="99.00" from="0" to="-6"/>
    <trip id="323" depart="99.00" from="8" to="-2"/>
    <trip id="324" depart="99.00" from="3" to="-5"/>
    <trip id="325" depart="100.00" from="9" to="1"/>
    <trip id="326" depart="100.00" from="6" to="-1"/>
    <trip id="327" depart="100.00" from="-1" to="-4"/>
    <trip id="328" depart="100.00" from="9" to="1"/>
    <trip id="329" depart="100.00" from="2" to="-5"/>
    <trip id="330" depart="101.00" from="8" to="-7"/>
    <trip id="331" depart="101.00" from="3" to="-9"/>
    <trip id="332" depart="102.00" from="-1" to="1"/>
    <trip id="333" depart="102.00" from="3" to="1"/>
    <trip id="334" depart="102.00" from="9" to="-3"/>
    <trip id="335" depart="102.00" from="6" to="-6"/>
    <trip id="336" depart="102.00" from="8" to="-0"/>
    <trip id="337" depart="103.00" from="3" to="-7"/>
    <trip id="338" depart="103.00" from="7" to="-2"/>
    <trip id="339" depart="104.00" from="1" to="-9"/>
    <trip id="340" depart="104.00" from="9" to="-5"/>
    <trip id="341" depart="104.00" from="-5" to="5"/>
    <trip id="342" depart="104.00" from="8" to="-9"/>
    <trip id="343" depart="105.00" from="2" to="-9"/>
    <trip id="344" depart="105.00" from="3" to="-9"/>
    <trip id="345" depart="105.00" from="4" to="-4"/>
    <trip id="346" depart="106.00" from="8" to="-3"/>
    <trip id="347" depart="106.00" from="5" to="-4"/>
    <trip id="348" depart="106.00" from="8" to="-8"/>
    <trip id="349" depart="106.00" from="6" to="-9"/>
    <trip id="350" depart="106.00" from="5" to="-4"/>
    <trip id="351" depart="107.00" from="3" to="-0"/>
    <trip id="352" depart="107.00" from="2" to="5"/>
    <trip id="353" depart="107.00" from="4" to="-9"/>
    <trip id="354" depart="107.00" from="1" to="-9"/>
    <trip id="355" depart="108.00" from="-5" to="-1"/>
    <trip id="356" depart="108.00" from="6" to="-7"/>
    <trip id="357" depart="108.00" from="8" to="-2"/>
    <trip id="358" depart="108.00" from="7" to="-7"/>
    <trip id="359" depart="109.00" from="2" to="-1"/>
    <trip id="360" depart="109.00" from="9" to="-7"/>
    <trip id="361" depart="110.00" from="2" to="-1"/>
    <trip id="362" depart="110.00" from="8" to="1"/>
    <trip id="363" depart="110.00" from="0" to="-4"/>
    <trip id="364" depart="110.00" from="6" to="-6"/>
    <trip id="365" depart="111.00" from="8" to="-8"/>
    <trip id="366" depart="111.00" from="2" to="-3"/>
    <trip id="367" depart="111.00" from="5" to="-9"/>
    <trip id="368" depart="112.00" from="8" to="-4"/>
    <trip id="369" depart="112.00" from="3" to="-4"/>
    <trip id="370" depart="112.00" from="1" to="-6"/>
    <trip id="371" depart="112.00" from="4" to="-3"/>
    <trip id="372" depart="113.00" from="4" to="5"/>
    <trip id="373" depart="113.00" from="3" to="-1"/>
    <trip id="374" depart="113.00" from="5" to="-9"/>
    <trip id="375" depart="113.00" from="3" to="-2"/>
    <trip id="376" depart="114.00" from="9" to="-2"/>
    <trip id="377" depart="114.00" from="0" to="-2"/>
    <trip id="378" depart="114.00" from="2" to="-8"/>
    <trip id="379" depart="115.00" from="7" to="-5"/>
    <trip id="380" depart="115.00" from="8" to="-5"/>
    <trip id="381" depart="115.00" from="6" to="-7"/>
    <trip id="382" depart="115.00" from="6" to="-4"/>
    <trip id="383" depart="116.00" from="8" to="1"/>
    <trip id="384" depart="116.00" from="6" to="5"/>
    <trip id="385" depart="116.00" from="0" to="-0"/>
    <trip id="386" depart="117.00" from="8" to="1"/>
    <trip id="387" depart="117.00" from="2" to="-2"/>
    <trip id="388" depart="117.00" from="-1" to="-5"/>
    <trip id="389" depart="118.00" from="-5" to="-4"/>
    <trip id="390" depart="118.00" from="-5" to="-7"/>
    <trip id="391" depart="118.00" from="2" to="-8"/>
    <trip id="392" depart="119.00" from="3" to="-8"/>
    <trip id="393" depart="119.00" from="0" to="-9"/>
    <trip id="394" depart="120.00" from="3" to="5"/>
    <trip id="395" depart="120.00" from="0" to="-7"/>
    <trip id="396" depart="121.00" from="5" to="-8"/>
    <trip id="397" depart="121.00" from="-1" to="-3"/>
    <trip id="398" depart="121.00" from="5" to="-6"/>
    <trip id="399" depart="121.00" from="5" to="-2"/>
    <trip id="400" depart="122.00" from="-1" to="-8"/>
    <trip id="401" depart="122.00" from="6" to="-6"/>
    <trip id="402" depart="122.00" from="6" to="-4"/>
    <trip id="403" depart="123.00" from="1" to="5"/>
    <trip id="404" depart="123.00" from="1" to="-1"/>
    <trip id="405" depart="123.00" from="2" to="-0"/>
    <trip id="406" depart="124.00" from="-1" to="-2"/>
    <trip id="407" depart="124.00" from="-5" to="-2"/>
    <trip id="408" depart="124.00" from="6" to="-7"/>
    <trip id="409" depart="124.00" from="3" to="5"/>
    <trip id="410" depart="125.00" from="3" to="5"/>
    <trip id="411" depart="125.00" from="-5" to="-2"/>
    <trip id="412" depart="125.00" from="4" to="-1"/>
    <trip id="413" depart="125.00" from="3" to="5"/>
    <trip id="414" depart="126.00" from="8" to="-3"/>
    <trip id="415" depart="126.00" from="2" to="-8"/>
    <trip id="416" depart="126.00" from="8" to="1"/>
    <trip id="417" depart="126.00" from="6" to="-9"/>
    <trip id="418" depart="127.00" from="4" to="1"/>
    <trip id="419" depart="127.00" from="0" to="-1"/>
    <trip id="420" depart="127.00" from="8" to="-7"/>
    <trip id="421" depart="128.00" from="8" to="-3"/>
    <trip id="422" depart="129.00" from="4" to="-8"/>
    <trip id="423" depart="129.00" from="6" to="-0"/>
    <trip id="424" depart="129.00" from="4" to="-3"/>
    <trip id="425" depart="129.00" from="-1" to="-1"/>
    <trip id="426" depart="130.00" from="9" to="-1"/>
    <trip id="427" depart="130.00" from="1" to="-5"/>
    <trip id="428" depart="130.00" from="7" to="-9"/>
    <trip id="429" depart="130.00" from="3" to="5"/>
    <trip id="430" depart="130.00" from="-5" to="-4"/>
    <trip id="431" depart="131.00" from="4" to="5"/>
    <trip id="432" depart="131.00" from="4" to="-2"/>
    <trip id="433" depart="131.00" from="-1" to="-9"/>
    <trip id="434" depart="132.00" from="9" to="-5"/>
    <trip id="435" depart="132.00" from="0" to="-2"/>
    <trip id="436" depart="132.00" from="1" to="-1"/>
    <trip id="437" depart="132.00" from="0" to="-0"/>
    <trip id="438" depart="133.00" from="4" to="-4"/>
    <trip id="439" depart="133.00" from="-1" to="-7"/>
    <trip id="440" depart="133.00" from="1" to="1"/>
    <trip id="441" depart="133.00" from="-1" to="-9"/>
    <trip id="442" depart="133.00" from="6" to="-3"/>
    <trip id="443" depart="134.00" from="9" to="-2"/>
    <trip id="444" depart="134.00" from="9" to="-8"/>
    <trip id="445" depart="134.00" from="1" to="-0"/>
    <trip id="446" depart="134.00" from="9" to="-7"/>
    <trip id="447" depart="134.00" from="5" to="-9"/>
    <trip id="448" depart="135.00" from="7" to="-4"/>
    <trip id="449" depart="135.00" from="2" to="-4"/>
    <trip id="450" depart="135.00" from="5" to="5"/>
    <trip id="451" depart="135.00" from="1" to="1"/>
    <trip id="452" depart="136.00" from="-1" to="-1"/>
    <trip id="453" depart="136.00" from="9" to="-0"/>
    <trip id="454" depart="136.00" from="5" to="-4"/>
    <trip id="455" depart="137.00" from="2" to="-2"/>
    <trip id="456" depart="137.00" from="-5" to="-5"/>
    <trip id="457" depart="138.00" from="2" to="-2"/>
    <trip id="458" depart="138.00" from="0" to="-9"/>
    <trip id="459" depart="139.00" from="3" to="-5"/>
    <trip id="460" depart="139.00" from="-5" to="-4"/>
    <trip id="461" depart="140.00" from="5" to="-5"/>
    <trip id="462" depart="140.00" from="0" to="-6"/>
    <trip id="463" depart="140.00" from="4" to="-0"/>
    <trip id="464" depart="141.00" from="3" to="5"/>
    <trip id="465" depart="141.00" from="4" to="-6"/>
    <trip id="466" depart="141.00" from="5" to="-0"/>
    <trip id="467" depart="142.00" from="2" to="-3"/>
    <trip id="468" depart="142.00" from="4" to="-8"/>
    <trip id="469" depart="142.00" from="3" to="-2"/>
    <trip id="470" depart="142.00" from="0" to="1"/>
    <trip id="471" depart="143.00" from="8" to="5"/>
    <trip id="472" depart="143.00" from="4" to="1"/>
    <trip id="473" depart="143.00" from="0" to="-3"/>
    <trip id="474" depart="143.00" from="1" to="-7"/>
    <trip id="475" depart="144.00" from="7" to="-9"/>
    <trip id="476" depart="144.00" from="8" to="-3"/>
    <trip id="477" depart="145.00" from="6" to="-8"/>
    <trip id="478" depart="145.00" from="1" to="1"/>
    <trip id="479" depart="145.00" from="8" to="-5"/>
    <trip id="480" depart="145.00" from="0" to="-0"/>
    <trip id="481" depart="146.00" from="7" to="-8"/>
    <trip id="482" depart="146.00" from="1" to="-6"/>
    <trip id="483" depart="146.00" from="1" to="-3"/>
    <trip id="484" depart="146.00" from="4" to="-9"/>
    <trip id="485" depart="147.00" from="8" to="-2"/>
    <trip id="486" depart="147.00" from="1" to="-3"/>
    <trip id="487" depart="147.00" from="1" to="-3"/>
    <trip id="488" depart="148.00" from="3" to="-9"/>
    <trip id="489" depart="148.00" from="4" to="-8"/>
    <trip id="490" depart="148.00" from="9" to="-0"/>
    <trip id="491" depart="149.00" from="3" to="-2"/>
    <trip id="492" depart="149.00" from="4" to="-2"/>
    <trip id="493" depart="150.00" from="4" to="1"/>
    <trip id="494" depart="150.00" from="1" to="-8"/>
    <trip id="495" depart="150.00" from="5" to="-6"/>
    <trip id="496" depart="150.00" from="5" to="-0"/>
    <trip id="497" depart="151.00" from="7" to="-6"/>
    <trip id="498" depart="151.00" from="4" to="-9"/>
    <trip id="499" depart="152.00" from="5" to="-1"/>
    <trip id="500" depart="152.00" from="1" to="-2"/>
    <trip id="501" depart="152.00" from="4" to="-9"/>
    <trip id="502" depart="152.00" from="3" to="-9"/>
    <trip id="503" depart="153.00" from="2" to="5"/>
    <trip id="504" depart="153.00" from="-5" to="-9"/>
    <trip id="505" depart="153.00" from="-5" to="-5"/>
    <trip id="506" depart="153.00" from="6" to="-8"/>
    <trip id="507" depart="153.00" from="9" to="-1"/>
    <trip id="508" depart="154.00" from="-5" to="-8"/>
    <trip id="509" depart="154.00" from="5" to="-3"/>
    <trip id="510" depart="154.00" from="6" to="-2"/>
    <trip id="511" depart="155.00" from="8" to="1"/>
    <trip id="512" depart="155.00" from="3" to="-3"/>
    <trip id="513" depart="155.00" from="8" to="-0"/>
    <trip id="514" depart="156.00" from="3" to="-6"/>
    <trip id="515" depart="156.00" from="1" to="-0"/>
    <trip id="516" depart="157.00" from="3" to="1"/>
    <trip id="517" depart="157.00" from="0" to="1"/>
    <trip id="518" depart="157.00" from="9" to="-1"/>
    <trip id="519" depart="158.00" from="7" to="-8"/>
    <trip id="520" depart="158.00" from="8" to="-8"/>
    <trip id="521" depart="158.00" from="6" to="-9"/>
    <trip id="522" depart="159.00" from="6" to="-9"/>
    <trip id="523" depart="159.00" from="8" to="-4"/>
    <trip id="524" depart="160.00" from="-5" to="-6"/>
    <trip id="525" depart="160.00" from="3" to="-2"/>
    <trip id="526" depart="160.00" from="-1" to="-5"/>
    <trip id="527" depart="160.00" from="2" to="-8"/>
    <trip id="528" depart="161.00" from="-5" to="-8"/>
    <trip id="529" depart="161.00" from="5" to="-5"/>
    <trip id="530" depart="161.00" from="2" to="-5"/>
    <trip id="531" depart="161.00" from="3" to="-4"/>
    <trip id="532" depart="162.00" from="2" to="-3"/>
    <trip id="533" depart="162.00" from="2" to="-3"/>
    <trip id="534" depart="162.00" from="-5" to="-3"/>
    <trip id="535" depart="163.00" from="1" to="-7"/>
    <trip id="536" depart="163.00" from="3" to="-8"/>
    <trip id="537" depart="163.00" from="3" to="-5"/>
    <trip id="538" depart="163.00" from="2" to="5"/>
    <trip id="539" depart="164.00" from="2" to="-0"/>
    <trip id="540" depart="164.00" from="6" to="-4"/>
    <trip id="541" depart="164.00" from="0" to="-4"/>
    <trip id="542" depart="164.00" from="7" to="-8"/>
    <trip id="543" depart="165.00" from="6" to="-1"/>
    <trip id="544" depart="165.00" from="9" to="-8"/>
    <trip id="545" depart="165.00" from="8" to="1"/>
    <trip id="546" depart="165.00" from="8" to="-3"/>
    <trip id="547" depart="165.00" from="8" to="-5"/>
    <trip id="548" depart="166.00" from="-1" to="-2"/>
    <trip id="549" depart="166.00" from="2" to="1"/>
    <trip id="550" depart="166.00" from="7" to="-0"/>
    <trip id="551" depart="166.00" from="2" to="-9"/>
    <trip id="552" depart="167.00" from="7" to="-4"/>
    <trip id="553" depart="167.00" from="3" to="-1"/>
    <trip id="554" depart="167.00" from="5" to="-0"/>
    <trip id="555" depart="168.00" from="-5" to="-7"/>
    <trip id="556" depart="168.00" from="1" to="-2"/>